
---------- Begin Simulation Statistics ----------
simSeconds                                          2                       # Number of seconds simulated (Second)
simTicks                                 2000000000000                       # Number of ticks simulated (Tick)
finalTick                                7436149929750                       # Number of ticks from beginning of simulation (restored from checkpoints and never reset) (Tick)
simFreq                                  1000000000000                       # The number of ticks per simulated second ((Tick/Second))
hostSeconds                                  82587.43                       # Real time elapsed on the host (Second)
hostTickRate                                 24216761                       # The number of ticks simulated per host second (ticks/s) ((Tick/Second))
hostMemory                                    8608804                       # Number of bytes of host memory used (Byte)
simInsts                                   6018745990                       # Number of instructions simulated (Count)
simOps                                     6023072773                       # Number of ops (including micro ops) simulated (Count)
hostInstRate                                    72877                       # Simulator instruction rate (inst/s) ((Count/Second))
hostOpRate                                      72930                       # Simulator op (including micro ops) rate (op/s) ((Count/Second))
board.bridge.power_state.pwrStateResidencyTicks::UNDEFINED 7436149929750                       # Cumulative time (in ticks) in various power states (Tick)
board.cache_hierarchy.dptw_caches.demandHits::processor.cores.core.mmu.dtb.walker       170005                       # number of demand (read+write) hits (Count)
board.cache_hierarchy.dptw_caches.demandHits::total       170005                       # number of demand (read+write) hits (Count)
board.cache_hierarchy.dptw_caches.overallHits::processor.cores.core.mmu.dtb.walker       170005                       # number of overall hits (Count)
board.cache_hierarchy.dptw_caches.overallHits::total       170005                       # number of overall hits (Count)
board.cache_hierarchy.dptw_caches.demandMisses::processor.cores.core.mmu.dtb.walker        11040                       # number of demand (read+write) misses (Count)
board.cache_hierarchy.dptw_caches.demandMisses::total        11040                       # number of demand (read+write) misses (Count)
board.cache_hierarchy.dptw_caches.overallMisses::processor.cores.core.mmu.dtb.walker        11040                       # number of overall misses (Count)
board.cache_hierarchy.dptw_caches.overallMisses::total        11040                       # number of overall misses (Count)
board.cache_hierarchy.dptw_caches.demandMissLatency::processor.cores.core.mmu.dtb.walker    177371000                       # number of demand (read+write) miss ticks (Tick)
board.cache_hierarchy.dptw_caches.demandMissLatency::total    177371000                       # number of demand (read+write) miss ticks (Tick)
board.cache_hierarchy.dptw_caches.overallMissLatency::processor.cores.core.mmu.dtb.walker    177371000                       # number of overall miss ticks (Tick)
board.cache_hierarchy.dptw_caches.overallMissLatency::total    177371000                       # number of overall miss ticks (Tick)
board.cache_hierarchy.dptw_caches.demandAccesses::processor.cores.core.mmu.dtb.walker       181045                       # number of demand (read+write) accesses (Count)
board.cache_hierarchy.dptw_caches.demandAccesses::total       181045                       # number of demand (read+write) accesses (Count)
board.cache_hierarchy.dptw_caches.overallAccesses::processor.cores.core.mmu.dtb.walker       181045                       # number of overall (read+write) accesses (Count)
board.cache_hierarchy.dptw_caches.overallAccesses::total       181045                       # number of overall (read+write) accesses (Count)
board.cache_hierarchy.dptw_caches.demandMissRate::processor.cores.core.mmu.dtb.walker     0.060979                       # miss rate for demand accesses (Ratio)
board.cache_hierarchy.dptw_caches.demandMissRate::total     0.060979                       # miss rate for demand accesses (Ratio)
board.cache_hierarchy.dptw_caches.overallMissRate::processor.cores.core.mmu.dtb.walker     0.060979                       # miss rate for overall accesses (Ratio)
board.cache_hierarchy.dptw_caches.overallMissRate::total     0.060979                       # miss rate for overall accesses (Ratio)
board.cache_hierarchy.dptw_caches.demandAvgMissLatency::processor.cores.core.mmu.dtb.walker 16066.213768                       # average overall miss latency in ticks ((Tick/Count))
board.cache_hierarchy.dptw_caches.demandAvgMissLatency::total 16066.213768                       # average overall miss latency in ticks ((Tick/Count))
board.cache_hierarchy.dptw_caches.overallAvgMissLatency::processor.cores.core.mmu.dtb.walker 16066.213768                       # average overall miss latency ((Tick/Count))
board.cache_hierarchy.dptw_caches.overallAvgMissLatency::total 16066.213768                       # average overall miss latency ((Tick/Count))
board.cache_hierarchy.dptw_caches.blockedCycles::no_mshrs            0                       # number of cycles access was blocked (Cycle)
board.cache_hierarchy.dptw_caches.blockedCycles::no_targets            0                       # number of cycles access was blocked (Cycle)
board.cache_hierarchy.dptw_caches.blockedCauses::no_mshrs            0                       # number of times access was blocked (Count)
board.cache_hierarchy.dptw_caches.blockedCauses::no_targets            0                       # number of times access was blocked (Count)
board.cache_hierarchy.dptw_caches.avgBlocked::no_mshrs          nan                       # average number of cycles each access was blocked ((Cycle/Count))
board.cache_hierarchy.dptw_caches.avgBlocked::no_targets          nan                       # average number of cycles each access was blocked ((Cycle/Count))
board.cache_hierarchy.dptw_caches.writebacks::writebacks         1439                       # number of writebacks (Count)
board.cache_hierarchy.dptw_caches.writebacks::total         1439                       # number of writebacks (Count)
board.cache_hierarchy.dptw_caches.demandMshrMisses::processor.cores.core.mmu.dtb.walker        11040                       # number of demand (read+write) MSHR misses (Count)
board.cache_hierarchy.dptw_caches.demandMshrMisses::total        11040                       # number of demand (read+write) MSHR misses (Count)
board.cache_hierarchy.dptw_caches.overallMshrMisses::processor.cores.core.mmu.dtb.walker        11040                       # number of overall MSHR misses (Count)
board.cache_hierarchy.dptw_caches.overallMshrMisses::total        11040                       # number of overall MSHR misses (Count)
board.cache_hierarchy.dptw_caches.demandMshrMissLatency::processor.cores.core.mmu.dtb.walker    166331000                       # number of demand (read+write) MSHR miss ticks (Tick)
board.cache_hierarchy.dptw_caches.demandMshrMissLatency::total    166331000                       # number of demand (read+write) MSHR miss ticks (Tick)
board.cache_hierarchy.dptw_caches.overallMshrMissLatency::processor.cores.core.mmu.dtb.walker    166331000                       # number of overall MSHR miss ticks (Tick)
board.cache_hierarchy.dptw_caches.overallMshrMissLatency::total    166331000                       # number of overall MSHR miss ticks (Tick)
board.cache_hierarchy.dptw_caches.demandMshrMissRate::processor.cores.core.mmu.dtb.walker     0.060979                       # mshr miss ratio for demand accesses (Ratio)
board.cache_hierarchy.dptw_caches.demandMshrMissRate::total     0.060979                       # mshr miss ratio for demand accesses (Ratio)
board.cache_hierarchy.dptw_caches.overallMshrMissRate::processor.cores.core.mmu.dtb.walker     0.060979                       # mshr miss ratio for overall accesses (Ratio)
board.cache_hierarchy.dptw_caches.overallMshrMissRate::total     0.060979                       # mshr miss ratio for overall accesses (Ratio)
board.cache_hierarchy.dptw_caches.demandAvgMshrMissLatency::processor.cores.core.mmu.dtb.walker 15066.213768                       # average overall mshr miss latency ((Tick/Count))
board.cache_hierarchy.dptw_caches.demandAvgMshrMissLatency::total 15066.213768                       # average overall mshr miss latency ((Tick/Count))
board.cache_hierarchy.dptw_caches.overallAvgMshrMissLatency::processor.cores.core.mmu.dtb.walker 15066.213768                       # average overall mshr miss latency ((Tick/Count))
board.cache_hierarchy.dptw_caches.overallAvgMshrMissLatency::total 15066.213768                       # average overall mshr miss latency ((Tick/Count))
board.cache_hierarchy.dptw_caches.replacements         7151                       # number of replacements (Count)
board.cache_hierarchy.dptw_caches.ReadReq.hits::processor.cores.core.mmu.dtb.walker       169822                       # number of ReadReq hits (Count)
board.cache_hierarchy.dptw_caches.ReadReq.hits::total       169822                       # number of ReadReq hits (Count)
board.cache_hierarchy.dptw_caches.ReadReq.misses::processor.cores.core.mmu.dtb.walker        10965                       # number of ReadReq misses (Count)
board.cache_hierarchy.dptw_caches.ReadReq.misses::total        10965                       # number of ReadReq misses (Count)
board.cache_hierarchy.dptw_caches.ReadReq.missLatency::processor.cores.core.mmu.dtb.walker    176865000                       # number of ReadReq miss ticks (Tick)
board.cache_hierarchy.dptw_caches.ReadReq.missLatency::total    176865000                       # number of ReadReq miss ticks (Tick)
board.cache_hierarchy.dptw_caches.ReadReq.accesses::processor.cores.core.mmu.dtb.walker       180787                       # number of ReadReq accesses(hits+misses) (Count)
board.cache_hierarchy.dptw_caches.ReadReq.accesses::total       180787                       # number of ReadReq accesses(hits+misses) (Count)
board.cache_hierarchy.dptw_caches.ReadReq.missRate::processor.cores.core.mmu.dtb.walker     0.060651                       # miss rate for ReadReq accesses (Ratio)
board.cache_hierarchy.dptw_caches.ReadReq.missRate::total     0.060651                       # miss rate for ReadReq accesses (Ratio)
board.cache_hierarchy.dptw_caches.ReadReq.avgMissLatency::processor.cores.core.mmu.dtb.walker 16129.958960                       # average ReadReq miss latency ((Tick/Count))
board.cache_hierarchy.dptw_caches.ReadReq.avgMissLatency::total 16129.958960                       # average ReadReq miss latency ((Tick/Count))
board.cache_hierarchy.dptw_caches.ReadReq.mshrMisses::processor.cores.core.mmu.dtb.walker        10965                       # number of ReadReq MSHR misses (Count)
board.cache_hierarchy.dptw_caches.ReadReq.mshrMisses::total        10965                       # number of ReadReq MSHR misses (Count)
board.cache_hierarchy.dptw_caches.ReadReq.mshrMissLatency::processor.cores.core.mmu.dtb.walker    165900000                       # number of ReadReq MSHR miss ticks (Tick)
board.cache_hierarchy.dptw_caches.ReadReq.mshrMissLatency::total    165900000                       # number of ReadReq MSHR miss ticks (Tick)
board.cache_hierarchy.dptw_caches.ReadReq.mshrMissRate::processor.cores.core.mmu.dtb.walker     0.060651                       # mshr miss rate for ReadReq accesses (Ratio)
board.cache_hierarchy.dptw_caches.ReadReq.mshrMissRate::total     0.060651                       # mshr miss rate for ReadReq accesses (Ratio)
board.cache_hierarchy.dptw_caches.ReadReq.avgMshrMissLatency::processor.cores.core.mmu.dtb.walker 15129.958960                       # average ReadReq mshr miss latency ((Tick/Count))
board.cache_hierarchy.dptw_caches.ReadReq.avgMshrMissLatency::total 15129.958960                       # average ReadReq mshr miss latency ((Tick/Count))
board.cache_hierarchy.dptw_caches.WriteReq.hits::processor.cores.core.mmu.dtb.walker          183                       # number of WriteReq hits (Count)
board.cache_hierarchy.dptw_caches.WriteReq.hits::total          183                       # number of WriteReq hits (Count)
board.cache_hierarchy.dptw_caches.WriteReq.misses::processor.cores.core.mmu.dtb.walker           75                       # number of WriteReq misses (Count)
board.cache_hierarchy.dptw_caches.WriteReq.misses::total           75                       # number of WriteReq misses (Count)
board.cache_hierarchy.dptw_caches.WriteReq.missLatency::processor.cores.core.mmu.dtb.walker       506000                       # number of WriteReq miss ticks (Tick)
board.cache_hierarchy.dptw_caches.WriteReq.missLatency::total       506000                       # number of WriteReq miss ticks (Tick)
board.cache_hierarchy.dptw_caches.WriteReq.accesses::processor.cores.core.mmu.dtb.walker          258                       # number of WriteReq accesses(hits+misses) (Count)
board.cache_hierarchy.dptw_caches.WriteReq.accesses::total          258                       # number of WriteReq accesses(hits+misses) (Count)
board.cache_hierarchy.dptw_caches.WriteReq.missRate::processor.cores.core.mmu.dtb.walker     0.290698                       # miss rate for WriteReq accesses (Ratio)
board.cache_hierarchy.dptw_caches.WriteReq.missRate::total     0.290698                       # miss rate for WriteReq accesses (Ratio)
board.cache_hierarchy.dptw_caches.WriteReq.avgMissLatency::processor.cores.core.mmu.dtb.walker  6746.666667                       # average WriteReq miss latency ((Tick/Count))
board.cache_hierarchy.dptw_caches.WriteReq.avgMissLatency::total  6746.666667                       # average WriteReq miss latency ((Tick/Count))
board.cache_hierarchy.dptw_caches.WriteReq.mshrMisses::processor.cores.core.mmu.dtb.walker           75                       # number of WriteReq MSHR misses (Count)
board.cache_hierarchy.dptw_caches.WriteReq.mshrMisses::total           75                       # number of WriteReq MSHR misses (Count)
board.cache_hierarchy.dptw_caches.WriteReq.mshrMissLatency::processor.cores.core.mmu.dtb.walker       431000                       # number of WriteReq MSHR miss ticks (Tick)
board.cache_hierarchy.dptw_caches.WriteReq.mshrMissLatency::total       431000                       # number of WriteReq MSHR miss ticks (Tick)
board.cache_hierarchy.dptw_caches.WriteReq.mshrMissRate::processor.cores.core.mmu.dtb.walker     0.290698                       # mshr miss rate for WriteReq accesses (Ratio)
board.cache_hierarchy.dptw_caches.WriteReq.mshrMissRate::total     0.290698                       # mshr miss rate for WriteReq accesses (Ratio)
board.cache_hierarchy.dptw_caches.WriteReq.avgMshrMissLatency::processor.cores.core.mmu.dtb.walker  5746.666667                       # average WriteReq mshr miss latency ((Tick/Count))
board.cache_hierarchy.dptw_caches.WriteReq.avgMshrMissLatency::total  5746.666667                       # average WriteReq mshr miss latency ((Tick/Count))
board.cache_hierarchy.dptw_caches.power_state.pwrStateResidencyTicks::UNDEFINED 7436149929750                       # Cumulative time (in ticks) in various power states (Tick)
board.cache_hierarchy.dptw_caches.tags.tagsInUse   125.196012                       # Average ticks per tags in use ((Tick/Count))
board.cache_hierarchy.dptw_caches.tags.totalRefs       181045                       # Total number of references to valid blocks. (Count)
board.cache_hierarchy.dptw_caches.tags.sampledRefs        10965                       # Sample count of references to valid blocks. (Count)
board.cache_hierarchy.dptw_caches.tags.avgRefs    16.511172                       # Average number of references to valid blocks. ((Count/Count))
board.cache_hierarchy.dptw_caches.tags.warmupTick 5436153332000                       # The tick when the warmup percentage was hit. (Tick)
board.cache_hierarchy.dptw_caches.tags.occupancies::processor.cores.core.mmu.dtb.walker   125.196012                       # Average occupied blocks per tick, per requestor ((Count/Tick))
board.cache_hierarchy.dptw_caches.tags.avgOccs::processor.cores.core.mmu.dtb.walker     0.978094                       # Average percentage of cache occupancy ((Ratio/Tick))
board.cache_hierarchy.dptw_caches.tags.avgOccs::total     0.978094                       # Average percentage of cache occupancy ((Ratio/Tick))
board.cache_hierarchy.dptw_caches.tags.occupanciesTaskId::1024          128                       # Occupied blocks per task id (Count)
board.cache_hierarchy.dptw_caches.tags.ageTaskId_1024::3            8                       # Occupied blocks per task id, per block age (Count)
board.cache_hierarchy.dptw_caches.tags.ageTaskId_1024::4          120                       # Occupied blocks per task id, per block age (Count)
board.cache_hierarchy.dptw_caches.tags.ratioOccsTaskId::1024            1                       # Ratio of occupied blocks and all blocks, per task id (Ratio)
board.cache_hierarchy.dptw_caches.tags.tagAccesses       735145                       # Number of tag accesses (Count)
board.cache_hierarchy.dptw_caches.tags.dataAccesses       735145                       # Number of data accesses (Count)
board.cache_hierarchy.dptw_caches.tags.power_state.pwrStateResidencyTicks::UNDEFINED 7436149929750                       # Cumulative time (in ticks) in various power states (Tick)
board.cache_hierarchy.iocache.blockedCycles::no_mshrs            0                       # number of cycles access was blocked (Cycle)
board.cache_hierarchy.iocache.blockedCycles::no_targets            0                       # number of cycles access was blocked (Cycle)
board.cache_hierarchy.iocache.blockedCauses::no_mshrs            0                       # number of times access was blocked (Count)
board.cache_hierarchy.iocache.blockedCauses::no_targets            0                       # number of times access was blocked (Count)
board.cache_hierarchy.iocache.avgBlocked::no_mshrs          nan                       # average number of cycles each access was blocked ((Cycle/Count))
board.cache_hierarchy.iocache.avgBlocked::no_targets          nan                       # average number of cycles each access was blocked ((Cycle/Count))
board.cache_hierarchy.iocache.replacements            0                       # number of replacements (Count)
board.cache_hierarchy.iocache.power_state.pwrStateResidencyTicks::UNDEFINED 7436149929750                       # Cumulative time (in ticks) in various power states (Tick)
board.cache_hierarchy.iocache.tags.tagsInUse            0                       # Average ticks per tags in use ((Tick/Count))
board.cache_hierarchy.iocache.tags.totalRefs            0                       # Total number of references to valid blocks. (Count)
board.cache_hierarchy.iocache.tags.sampledRefs            0                       # Sample count of references to valid blocks. (Count)
board.cache_hierarchy.iocache.tags.avgRefs          nan                       # Average number of references to valid blocks. ((Count/Count))
board.cache_hierarchy.iocache.tags.warmupTick            0                       # The tick when the warmup percentage was hit. (Tick)
board.cache_hierarchy.iocache.tags.tagAccesses            0                       # Number of tag accesses (Count)
board.cache_hierarchy.iocache.tags.dataAccesses            0                       # Number of data accesses (Count)
board.cache_hierarchy.iocache.tags.power_state.pwrStateResidencyTicks::UNDEFINED 7436149929750                       # Cumulative time (in ticks) in various power states (Tick)
board.cache_hierarchy.iptw_caches.demandHits::processor.cores.core.mmu.itb.walker        22469                       # number of demand (read+write) hits (Count)
board.cache_hierarchy.iptw_caches.demandHits::total        22469                       # number of demand (read+write) hits (Count)
board.cache_hierarchy.iptw_caches.overallHits::processor.cores.core.mmu.itb.walker        22469                       # number of overall hits (Count)
board.cache_hierarchy.iptw_caches.overallHits::total        22469                       # number of overall hits (Count)
board.cache_hierarchy.iptw_caches.demandMisses::processor.cores.core.mmu.itb.walker         1706                       # number of demand (read+write) misses (Count)
board.cache_hierarchy.iptw_caches.demandMisses::total         1706                       # number of demand (read+write) misses (Count)
board.cache_hierarchy.iptw_caches.overallMisses::processor.cores.core.mmu.itb.walker         1706                       # number of overall misses (Count)
board.cache_hierarchy.iptw_caches.overallMisses::total         1706                       # number of overall misses (Count)
board.cache_hierarchy.iptw_caches.demandMissLatency::processor.cores.core.mmu.itb.walker     42298000                       # number of demand (read+write) miss ticks (Tick)
board.cache_hierarchy.iptw_caches.demandMissLatency::total     42298000                       # number of demand (read+write) miss ticks (Tick)
board.cache_hierarchy.iptw_caches.overallMissLatency::processor.cores.core.mmu.itb.walker     42298000                       # number of overall miss ticks (Tick)
board.cache_hierarchy.iptw_caches.overallMissLatency::total     42298000                       # number of overall miss ticks (Tick)
board.cache_hierarchy.iptw_caches.demandAccesses::processor.cores.core.mmu.itb.walker        24175                       # number of demand (read+write) accesses (Count)
board.cache_hierarchy.iptw_caches.demandAccesses::total        24175                       # number of demand (read+write) accesses (Count)
board.cache_hierarchy.iptw_caches.overallAccesses::processor.cores.core.mmu.itb.walker        24175                       # number of overall (read+write) accesses (Count)
board.cache_hierarchy.iptw_caches.overallAccesses::total        24175                       # number of overall (read+write) accesses (Count)
board.cache_hierarchy.iptw_caches.demandMissRate::processor.cores.core.mmu.itb.walker     0.070569                       # miss rate for demand accesses (Ratio)
board.cache_hierarchy.iptw_caches.demandMissRate::total     0.070569                       # miss rate for demand accesses (Ratio)
board.cache_hierarchy.iptw_caches.overallMissRate::processor.cores.core.mmu.itb.walker     0.070569                       # miss rate for overall accesses (Ratio)
board.cache_hierarchy.iptw_caches.overallMissRate::total     0.070569                       # miss rate for overall accesses (Ratio)
board.cache_hierarchy.iptw_caches.demandAvgMissLatency::processor.cores.core.mmu.itb.walker 24793.669402                       # average overall miss latency in ticks ((Tick/Count))
board.cache_hierarchy.iptw_caches.demandAvgMissLatency::total 24793.669402                       # average overall miss latency in ticks ((Tick/Count))
board.cache_hierarchy.iptw_caches.overallAvgMissLatency::processor.cores.core.mmu.itb.walker 24793.669402                       # average overall miss latency ((Tick/Count))
board.cache_hierarchy.iptw_caches.overallAvgMissLatency::total 24793.669402                       # average overall miss latency ((Tick/Count))
board.cache_hierarchy.iptw_caches.blockedCycles::no_mshrs            0                       # number of cycles access was blocked (Cycle)
board.cache_hierarchy.iptw_caches.blockedCycles::no_targets            0                       # number of cycles access was blocked (Cycle)
board.cache_hierarchy.iptw_caches.blockedCauses::no_mshrs            0                       # number of times access was blocked (Count)
board.cache_hierarchy.iptw_caches.blockedCauses::no_targets            0                       # number of times access was blocked (Count)
board.cache_hierarchy.iptw_caches.avgBlocked::no_mshrs          nan                       # average number of cycles each access was blocked ((Cycle/Count))
board.cache_hierarchy.iptw_caches.avgBlocked::no_targets          nan                       # average number of cycles each access was blocked ((Cycle/Count))
board.cache_hierarchy.iptw_caches.writebacks::writebacks           55                       # number of writebacks (Count)
board.cache_hierarchy.iptw_caches.writebacks::total           55                       # number of writebacks (Count)
board.cache_hierarchy.iptw_caches.demandMshrMisses::processor.cores.core.mmu.itb.walker         1706                       # number of demand (read+write) MSHR misses (Count)
board.cache_hierarchy.iptw_caches.demandMshrMisses::total         1706                       # number of demand (read+write) MSHR misses (Count)
board.cache_hierarchy.iptw_caches.overallMshrMisses::processor.cores.core.mmu.itb.walker         1706                       # number of overall MSHR misses (Count)
board.cache_hierarchy.iptw_caches.overallMshrMisses::total         1706                       # number of overall MSHR misses (Count)
board.cache_hierarchy.iptw_caches.demandMshrMissLatency::processor.cores.core.mmu.itb.walker     40592000                       # number of demand (read+write) MSHR miss ticks (Tick)
board.cache_hierarchy.iptw_caches.demandMshrMissLatency::total     40592000                       # number of demand (read+write) MSHR miss ticks (Tick)
board.cache_hierarchy.iptw_caches.overallMshrMissLatency::processor.cores.core.mmu.itb.walker     40592000                       # number of overall MSHR miss ticks (Tick)
board.cache_hierarchy.iptw_caches.overallMshrMissLatency::total     40592000                       # number of overall MSHR miss ticks (Tick)
board.cache_hierarchy.iptw_caches.demandMshrMissRate::processor.cores.core.mmu.itb.walker     0.070569                       # mshr miss ratio for demand accesses (Ratio)
board.cache_hierarchy.iptw_caches.demandMshrMissRate::total     0.070569                       # mshr miss ratio for demand accesses (Ratio)
board.cache_hierarchy.iptw_caches.overallMshrMissRate::processor.cores.core.mmu.itb.walker     0.070569                       # mshr miss ratio for overall accesses (Ratio)
board.cache_hierarchy.iptw_caches.overallMshrMissRate::total     0.070569                       # mshr miss ratio for overall accesses (Ratio)
board.cache_hierarchy.iptw_caches.demandAvgMshrMissLatency::processor.cores.core.mmu.itb.walker 23793.669402                       # average overall mshr miss latency ((Tick/Count))
board.cache_hierarchy.iptw_caches.demandAvgMshrMissLatency::total 23793.669402                       # average overall mshr miss latency ((Tick/Count))
board.cache_hierarchy.iptw_caches.overallAvgMshrMissLatency::processor.cores.core.mmu.itb.walker 23793.669402                       # average overall mshr miss latency ((Tick/Count))
board.cache_hierarchy.iptw_caches.overallAvgMshrMissLatency::total 23793.669402                       # average overall mshr miss latency ((Tick/Count))
board.cache_hierarchy.iptw_caches.replacements          815                       # number of replacements (Count)
board.cache_hierarchy.iptw_caches.ReadReq.hits::processor.cores.core.mmu.itb.walker        22469                       # number of ReadReq hits (Count)
board.cache_hierarchy.iptw_caches.ReadReq.hits::total        22469                       # number of ReadReq hits (Count)
board.cache_hierarchy.iptw_caches.ReadReq.misses::processor.cores.core.mmu.itb.walker         1706                       # number of ReadReq misses (Count)
board.cache_hierarchy.iptw_caches.ReadReq.misses::total         1706                       # number of ReadReq misses (Count)
board.cache_hierarchy.iptw_caches.ReadReq.missLatency::processor.cores.core.mmu.itb.walker     42298000                       # number of ReadReq miss ticks (Tick)
board.cache_hierarchy.iptw_caches.ReadReq.missLatency::total     42298000                       # number of ReadReq miss ticks (Tick)
board.cache_hierarchy.iptw_caches.ReadReq.accesses::processor.cores.core.mmu.itb.walker        24175                       # number of ReadReq accesses(hits+misses) (Count)
board.cache_hierarchy.iptw_caches.ReadReq.accesses::total        24175                       # number of ReadReq accesses(hits+misses) (Count)
board.cache_hierarchy.iptw_caches.ReadReq.missRate::processor.cores.core.mmu.itb.walker     0.070569                       # miss rate for ReadReq accesses (Ratio)
board.cache_hierarchy.iptw_caches.ReadReq.missRate::total     0.070569                       # miss rate for ReadReq accesses (Ratio)
board.cache_hierarchy.iptw_caches.ReadReq.avgMissLatency::processor.cores.core.mmu.itb.walker 24793.669402                       # average ReadReq miss latency ((Tick/Count))
board.cache_hierarchy.iptw_caches.ReadReq.avgMissLatency::total 24793.669402                       # average ReadReq miss latency ((Tick/Count))
board.cache_hierarchy.iptw_caches.ReadReq.mshrMisses::processor.cores.core.mmu.itb.walker         1706                       # number of ReadReq MSHR misses (Count)
board.cache_hierarchy.iptw_caches.ReadReq.mshrMisses::total         1706                       # number of ReadReq MSHR misses (Count)
board.cache_hierarchy.iptw_caches.ReadReq.mshrMissLatency::processor.cores.core.mmu.itb.walker     40592000                       # number of ReadReq MSHR miss ticks (Tick)
board.cache_hierarchy.iptw_caches.ReadReq.mshrMissLatency::total     40592000                       # number of ReadReq MSHR miss ticks (Tick)
board.cache_hierarchy.iptw_caches.ReadReq.mshrMissRate::processor.cores.core.mmu.itb.walker     0.070569                       # mshr miss rate for ReadReq accesses (Ratio)
board.cache_hierarchy.iptw_caches.ReadReq.mshrMissRate::total     0.070569                       # mshr miss rate for ReadReq accesses (Ratio)
board.cache_hierarchy.iptw_caches.ReadReq.avgMshrMissLatency::processor.cores.core.mmu.itb.walker 23793.669402                       # average ReadReq mshr miss latency ((Tick/Count))
board.cache_hierarchy.iptw_caches.ReadReq.avgMshrMissLatency::total 23793.669402                       # average ReadReq mshr miss latency ((Tick/Count))
board.cache_hierarchy.iptw_caches.power_state.pwrStateResidencyTicks::UNDEFINED 7436149929750                       # Cumulative time (in ticks) in various power states (Tick)
board.cache_hierarchy.iptw_caches.tags.tagsInUse    88.473231                       # Average ticks per tags in use ((Tick/Count))
board.cache_hierarchy.iptw_caches.tags.totalRefs        24175                       # Total number of references to valid blocks. (Count)
board.cache_hierarchy.iptw_caches.tags.sampledRefs         1706                       # Sample count of references to valid blocks. (Count)
board.cache_hierarchy.iptw_caches.tags.avgRefs    14.170574                       # Average number of references to valid blocks. ((Count/Count))
board.cache_hierarchy.iptw_caches.tags.warmupTick 5436150247000                       # The tick when the warmup percentage was hit. (Tick)
board.cache_hierarchy.iptw_caches.tags.occupancies::processor.cores.core.mmu.itb.walker    88.473231                       # Average occupied blocks per tick, per requestor ((Count/Tick))
board.cache_hierarchy.iptw_caches.tags.avgOccs::processor.cores.core.mmu.itb.walker     0.691197                       # Average percentage of cache occupancy ((Ratio/Tick))
board.cache_hierarchy.iptw_caches.tags.avgOccs::total     0.691197                       # Average percentage of cache occupancy ((Ratio/Tick))
board.cache_hierarchy.iptw_caches.tags.occupanciesTaskId::1024           90                       # Occupied blocks per task id (Count)
board.cache_hierarchy.iptw_caches.tags.ageTaskId_1024::3            1                       # Occupied blocks per task id, per block age (Count)
board.cache_hierarchy.iptw_caches.tags.ageTaskId_1024::4           89                       # Occupied blocks per task id, per block age (Count)
board.cache_hierarchy.iptw_caches.tags.ratioOccsTaskId::1024     0.703125                       # Ratio of occupied blocks and all blocks, per task id (Ratio)
board.cache_hierarchy.iptw_caches.tags.tagAccesses        98406                       # Number of tag accesses (Count)
board.cache_hierarchy.iptw_caches.tags.dataAccesses        98406                       # Number of data accesses (Count)
board.cache_hierarchy.iptw_caches.tags.power_state.pwrStateResidencyTicks::UNDEFINED 7436149929750                       # Cumulative time (in ticks) in various power states (Tick)
board.cache_hierarchy.l1dcaches.demandHits::processor.cores.core.data   1896194747                       # number of demand (read+write) hits (Count)
board.cache_hierarchy.l1dcaches.demandHits::total   1896194747                       # number of demand (read+write) hits (Count)
board.cache_hierarchy.l1dcaches.overallHits::processor.cores.core.data   1896194747                       # number of overall hits (Count)
board.cache_hierarchy.l1dcaches.overallHits::total   1896194747                       # number of overall hits (Count)
board.cache_hierarchy.l1dcaches.demandMisses::processor.cores.core.data     19579828                       # number of demand (read+write) misses (Count)
board.cache_hierarchy.l1dcaches.demandMisses::total     19579828                       # number of demand (read+write) misses (Count)
board.cache_hierarchy.l1dcaches.overallMisses::processor.cores.core.data     19579828                       # number of overall misses (Count)
board.cache_hierarchy.l1dcaches.overallMisses::total     19579828                       # number of overall misses (Count)
board.cache_hierarchy.l1dcaches.demandMissLatency::processor.cores.core.data 324990543617                       # number of demand (read+write) miss ticks (Tick)
board.cache_hierarchy.l1dcaches.demandMissLatency::total 324990543617                       # number of demand (read+write) miss ticks (Tick)
board.cache_hierarchy.l1dcaches.overallMissLatency::processor.cores.core.data 324990543617                       # number of overall miss ticks (Tick)
board.cache_hierarchy.l1dcaches.overallMissLatency::total 324990543617                       # number of overall miss ticks (Tick)
board.cache_hierarchy.l1dcaches.demandAccesses::processor.cores.core.data   1915774575                       # number of demand (read+write) accesses (Count)
board.cache_hierarchy.l1dcaches.demandAccesses::total   1915774575                       # number of demand (read+write) accesses (Count)
board.cache_hierarchy.l1dcaches.overallAccesses::processor.cores.core.data   1915774575                       # number of overall (read+write) accesses (Count)
board.cache_hierarchy.l1dcaches.overallAccesses::total   1915774575                       # number of overall (read+write) accesses (Count)
board.cache_hierarchy.l1dcaches.demandMissRate::processor.cores.core.data     0.010220                       # miss rate for demand accesses (Ratio)
board.cache_hierarchy.l1dcaches.demandMissRate::total     0.010220                       # miss rate for demand accesses (Ratio)
board.cache_hierarchy.l1dcaches.overallMissRate::processor.cores.core.data     0.010220                       # miss rate for overall accesses (Ratio)
board.cache_hierarchy.l1dcaches.overallMissRate::total     0.010220                       # miss rate for overall accesses (Ratio)
board.cache_hierarchy.l1dcaches.demandAvgMissLatency::processor.cores.core.data 16598.232815                       # average overall miss latency in ticks ((Tick/Count))
board.cache_hierarchy.l1dcaches.demandAvgMissLatency::total 16598.232815                       # average overall miss latency in ticks ((Tick/Count))
board.cache_hierarchy.l1dcaches.overallAvgMissLatency::processor.cores.core.data 16598.232815                       # average overall miss latency ((Tick/Count))
board.cache_hierarchy.l1dcaches.overallAvgMissLatency::total 16598.232815                       # average overall miss latency ((Tick/Count))
board.cache_hierarchy.l1dcaches.blockedCycles::no_mshrs         2288                       # number of cycles access was blocked (Cycle)
board.cache_hierarchy.l1dcaches.blockedCycles::no_targets         3672                       # number of cycles access was blocked (Cycle)
board.cache_hierarchy.l1dcaches.blockedCauses::no_mshrs          481                       # number of times access was blocked (Count)
board.cache_hierarchy.l1dcaches.blockedCauses::no_targets           71                       # number of times access was blocked (Count)
board.cache_hierarchy.l1dcaches.avgBlocked::no_mshrs     4.756757                       # average number of cycles each access was blocked ((Cycle/Count))
board.cache_hierarchy.l1dcaches.avgBlocked::no_targets    51.718310                       # average number of cycles each access was blocked ((Cycle/Count))
board.cache_hierarchy.l1dcaches.writebacks::writebacks     19011821                       # number of writebacks (Count)
board.cache_hierarchy.l1dcaches.writebacks::total     19011821                       # number of writebacks (Count)
board.cache_hierarchy.l1dcaches.demandMshrHits::processor.cores.core.data      1597290                       # number of demand (read+write) MSHR hits (Count)
board.cache_hierarchy.l1dcaches.demandMshrHits::total      1597290                       # number of demand (read+write) MSHR hits (Count)
board.cache_hierarchy.l1dcaches.overallMshrHits::processor.cores.core.data      1597290                       # number of overall MSHR hits (Count)
board.cache_hierarchy.l1dcaches.overallMshrHits::total      1597290                       # number of overall MSHR hits (Count)
board.cache_hierarchy.l1dcaches.demandMshrMisses::processor.cores.core.data     17982538                       # number of demand (read+write) MSHR misses (Count)
board.cache_hierarchy.l1dcaches.demandMshrMisses::total     17982538                       # number of demand (read+write) MSHR misses (Count)
board.cache_hierarchy.l1dcaches.overallMshrMisses::cache_hierarchy.l1dcaches.prefetcher      1699614                       # number of overall MSHR misses (Count)
board.cache_hierarchy.l1dcaches.overallMshrMisses::processor.cores.core.data     17982538                       # number of overall MSHR misses (Count)
board.cache_hierarchy.l1dcaches.overallMshrMisses::total     19682152                       # number of overall MSHR misses (Count)
board.cache_hierarchy.l1dcaches.overallMshrUncacheable::processor.cores.core.data         4212                       # number of overall MSHR uncacheable misses (Count)
board.cache_hierarchy.l1dcaches.overallMshrUncacheable::total         4212                       # number of overall MSHR uncacheable misses (Count)
board.cache_hierarchy.l1dcaches.demandMshrMissLatency::processor.cores.core.data 244251027971                       # number of demand (read+write) MSHR miss ticks (Tick)
board.cache_hierarchy.l1dcaches.demandMshrMissLatency::total 244251027971                       # number of demand (read+write) MSHR miss ticks (Tick)
board.cache_hierarchy.l1dcaches.overallMshrMissLatency::cache_hierarchy.l1dcaches.prefetcher  42167908556                       # number of overall MSHR miss ticks (Tick)
board.cache_hierarchy.l1dcaches.overallMshrMissLatency::processor.cores.core.data 244251027971                       # number of overall MSHR miss ticks (Tick)
board.cache_hierarchy.l1dcaches.overallMshrMissLatency::total 286418936527                       # number of overall MSHR miss ticks (Tick)
board.cache_hierarchy.l1dcaches.overallMshrUncacheableLatency::processor.cores.core.data    334132000                       # number of overall MSHR uncacheable ticks (Tick)
board.cache_hierarchy.l1dcaches.overallMshrUncacheableLatency::total    334132000                       # number of overall MSHR uncacheable ticks (Tick)
board.cache_hierarchy.l1dcaches.demandMshrMissRate::processor.cores.core.data     0.009387                       # mshr miss ratio for demand accesses (Ratio)
board.cache_hierarchy.l1dcaches.demandMshrMissRate::total     0.009387                       # mshr miss ratio for demand accesses (Ratio)
board.cache_hierarchy.l1dcaches.overallMshrMissRate::cache_hierarchy.l1dcaches.prefetcher          inf                       # mshr miss ratio for overall accesses (Ratio)
board.cache_hierarchy.l1dcaches.overallMshrMissRate::processor.cores.core.data     0.009387                       # mshr miss ratio for overall accesses (Ratio)
board.cache_hierarchy.l1dcaches.overallMshrMissRate::total     0.010274                       # mshr miss ratio for overall accesses (Ratio)
board.cache_hierarchy.l1dcaches.demandAvgMshrMissLatency::processor.cores.core.data 13582.678261                       # average overall mshr miss latency ((Tick/Count))
board.cache_hierarchy.l1dcaches.demandAvgMshrMissLatency::total 13582.678261                       # average overall mshr miss latency ((Tick/Count))
board.cache_hierarchy.l1dcaches.overallAvgMshrMissLatency::cache_hierarchy.l1dcaches.prefetcher 24810.285486                       # average overall mshr miss latency ((Tick/Count))
board.cache_hierarchy.l1dcaches.overallAvgMshrMissLatency::processor.cores.core.data 13582.678261                       # average overall mshr miss latency ((Tick/Count))
board.cache_hierarchy.l1dcaches.overallAvgMshrMissLatency::total 14552.216471                       # average overall mshr miss latency ((Tick/Count))
board.cache_hierarchy.l1dcaches.overallAvgMshrUncacheableLatency::processor.cores.core.data 79328.584995                       # average overall mshr uncacheable latency ((Tick/Count))
board.cache_hierarchy.l1dcaches.overallAvgMshrUncacheableLatency::total 79328.584995                       # average overall mshr uncacheable latency ((Tick/Count))
board.cache_hierarchy.l1dcaches.replacements     19691163                       # number of replacements (Count)
board.cache_hierarchy.l1dcaches.HardPFReq.mshrMisses::cache_hierarchy.l1dcaches.prefetcher      1699614                       # number of HardPFReq MSHR misses (Count)
board.cache_hierarchy.l1dcaches.HardPFReq.mshrMisses::total      1699614                       # number of HardPFReq MSHR misses (Count)
board.cache_hierarchy.l1dcaches.HardPFReq.mshrMissLatency::cache_hierarchy.l1dcaches.prefetcher  42167908556                       # number of HardPFReq MSHR miss ticks (Tick)
board.cache_hierarchy.l1dcaches.HardPFReq.mshrMissLatency::total  42167908556                       # number of HardPFReq MSHR miss ticks (Tick)
board.cache_hierarchy.l1dcaches.HardPFReq.mshrMissRate::cache_hierarchy.l1dcaches.prefetcher          inf                       # mshr miss rate for HardPFReq accesses (Ratio)
board.cache_hierarchy.l1dcaches.HardPFReq.mshrMissRate::total          inf                       # mshr miss rate for HardPFReq accesses (Ratio)
board.cache_hierarchy.l1dcaches.HardPFReq.avgMshrMissLatency::cache_hierarchy.l1dcaches.prefetcher 24810.285486                       # average HardPFReq mshr miss latency ((Tick/Count))
board.cache_hierarchy.l1dcaches.HardPFReq.avgMshrMissLatency::total 24810.285486                       # average HardPFReq mshr miss latency ((Tick/Count))
board.cache_hierarchy.l1dcaches.LoadLockedReq.hits::processor.cores.core.data      4208706                       # number of LoadLockedReq hits (Count)
board.cache_hierarchy.l1dcaches.LoadLockedReq.hits::total      4208706                       # number of LoadLockedReq hits (Count)
board.cache_hierarchy.l1dcaches.LoadLockedReq.misses::processor.cores.core.data         5061                       # number of LoadLockedReq misses (Count)
board.cache_hierarchy.l1dcaches.LoadLockedReq.misses::total         5061                       # number of LoadLockedReq misses (Count)
board.cache_hierarchy.l1dcaches.LoadLockedReq.missLatency::processor.cores.core.data    178769000                       # number of LoadLockedReq miss ticks (Tick)
board.cache_hierarchy.l1dcaches.LoadLockedReq.missLatency::total    178769000                       # number of LoadLockedReq miss ticks (Tick)
board.cache_hierarchy.l1dcaches.LoadLockedReq.accesses::processor.cores.core.data      4213767                       # number of LoadLockedReq accesses(hits+misses) (Count)
board.cache_hierarchy.l1dcaches.LoadLockedReq.accesses::total      4213767                       # number of LoadLockedReq accesses(hits+misses) (Count)
board.cache_hierarchy.l1dcaches.LoadLockedReq.missRate::processor.cores.core.data     0.001201                       # miss rate for LoadLockedReq accesses (Ratio)
board.cache_hierarchy.l1dcaches.LoadLockedReq.missRate::total     0.001201                       # miss rate for LoadLockedReq accesses (Ratio)
board.cache_hierarchy.l1dcaches.LoadLockedReq.avgMissLatency::processor.cores.core.data 35322.861095                       # average LoadLockedReq miss latency ((Tick/Count))
board.cache_hierarchy.l1dcaches.LoadLockedReq.avgMissLatency::total 35322.861095                       # average LoadLockedReq miss latency ((Tick/Count))
board.cache_hierarchy.l1dcaches.LoadLockedReq.mshrHits::processor.cores.core.data         1191                       # number of LoadLockedReq MSHR hits (Count)
board.cache_hierarchy.l1dcaches.LoadLockedReq.mshrHits::total         1191                       # number of LoadLockedReq MSHR hits (Count)
board.cache_hierarchy.l1dcaches.LoadLockedReq.mshrMisses::processor.cores.core.data         3870                       # number of LoadLockedReq MSHR misses (Count)
board.cache_hierarchy.l1dcaches.LoadLockedReq.mshrMisses::total         3870                       # number of LoadLockedReq MSHR misses (Count)
board.cache_hierarchy.l1dcaches.LoadLockedReq.mshrMissLatency::processor.cores.core.data    134242000                       # number of LoadLockedReq MSHR miss ticks (Tick)
board.cache_hierarchy.l1dcaches.LoadLockedReq.mshrMissLatency::total    134242000                       # number of LoadLockedReq MSHR miss ticks (Tick)
board.cache_hierarchy.l1dcaches.LoadLockedReq.mshrMissRate::processor.cores.core.data     0.000918                       # mshr miss rate for LoadLockedReq accesses (Ratio)
board.cache_hierarchy.l1dcaches.LoadLockedReq.mshrMissRate::total     0.000918                       # mshr miss rate for LoadLockedReq accesses (Ratio)
board.cache_hierarchy.l1dcaches.LoadLockedReq.avgMshrMissLatency::processor.cores.core.data 34687.855297                       # average LoadLockedReq mshr miss latency ((Tick/Count))
board.cache_hierarchy.l1dcaches.LoadLockedReq.avgMshrMissLatency::total 34687.855297                       # average LoadLockedReq mshr miss latency ((Tick/Count))
board.cache_hierarchy.l1dcaches.ReadReq.hits::processor.cores.core.data   1023681254                       # number of ReadReq hits (Count)
board.cache_hierarchy.l1dcaches.ReadReq.hits::total   1023681254                       # number of ReadReq hits (Count)
board.cache_hierarchy.l1dcaches.ReadReq.misses::processor.cores.core.data     18724597                       # number of ReadReq misses (Count)
board.cache_hierarchy.l1dcaches.ReadReq.misses::total     18724597                       # number of ReadReq misses (Count)
board.cache_hierarchy.l1dcaches.ReadReq.missLatency::processor.cores.core.data 274476437000                       # number of ReadReq miss ticks (Tick)
board.cache_hierarchy.l1dcaches.ReadReq.missLatency::total 274476437000                       # number of ReadReq miss ticks (Tick)
board.cache_hierarchy.l1dcaches.ReadReq.accesses::processor.cores.core.data   1042405851                       # number of ReadReq accesses(hits+misses) (Count)
board.cache_hierarchy.l1dcaches.ReadReq.accesses::total   1042405851                       # number of ReadReq accesses(hits+misses) (Count)
board.cache_hierarchy.l1dcaches.ReadReq.missRate::processor.cores.core.data     0.017963                       # miss rate for ReadReq accesses (Ratio)
board.cache_hierarchy.l1dcaches.ReadReq.missRate::total     0.017963                       # miss rate for ReadReq accesses (Ratio)
board.cache_hierarchy.l1dcaches.ReadReq.avgMissLatency::processor.cores.core.data 14658.603173                       # average ReadReq miss latency ((Tick/Count))
board.cache_hierarchy.l1dcaches.ReadReq.avgMissLatency::total 14658.603173                       # average ReadReq miss latency ((Tick/Count))
board.cache_hierarchy.l1dcaches.ReadReq.mshrHits::processor.cores.core.data       898040                       # number of ReadReq MSHR hits (Count)
board.cache_hierarchy.l1dcaches.ReadReq.mshrHits::total       898040                       # number of ReadReq MSHR hits (Count)
board.cache_hierarchy.l1dcaches.ReadReq.mshrMisses::processor.cores.core.data     17826557                       # number of ReadReq MSHR misses (Count)
board.cache_hierarchy.l1dcaches.ReadReq.mshrMisses::total     17826557                       # number of ReadReq MSHR misses (Count)
board.cache_hierarchy.l1dcaches.ReadReq.mshrUncacheable::processor.cores.core.data         2482                       # number of ReadReq MSHR uncacheable (Count)
board.cache_hierarchy.l1dcaches.ReadReq.mshrUncacheable::total         2482                       # number of ReadReq MSHR uncacheable (Count)
board.cache_hierarchy.l1dcaches.ReadReq.mshrMissLatency::processor.cores.core.data 237478577000                       # number of ReadReq MSHR miss ticks (Tick)
board.cache_hierarchy.l1dcaches.ReadReq.mshrMissLatency::total 237478577000                       # number of ReadReq MSHR miss ticks (Tick)
board.cache_hierarchy.l1dcaches.ReadReq.mshrUncacheableLatency::processor.cores.core.data    334132000                       # number of ReadReq MSHR uncacheable ticks (Tick)
board.cache_hierarchy.l1dcaches.ReadReq.mshrUncacheableLatency::total    334132000                       # number of ReadReq MSHR uncacheable ticks (Tick)
board.cache_hierarchy.l1dcaches.ReadReq.mshrMissRate::processor.cores.core.data     0.017101                       # mshr miss rate for ReadReq accesses (Ratio)
board.cache_hierarchy.l1dcaches.ReadReq.mshrMissRate::total     0.017101                       # mshr miss rate for ReadReq accesses (Ratio)
board.cache_hierarchy.l1dcaches.ReadReq.avgMshrMissLatency::processor.cores.core.data 13321.617685                       # average ReadReq mshr miss latency ((Tick/Count))
board.cache_hierarchy.l1dcaches.ReadReq.avgMshrMissLatency::total 13321.617685                       # average ReadReq mshr miss latency ((Tick/Count))
board.cache_hierarchy.l1dcaches.ReadReq.avgMshrUncacheableLatency::processor.cores.core.data 134622.078969                       # average ReadReq mshr uncacheable latency ((Tick/Count))
board.cache_hierarchy.l1dcaches.ReadReq.avgMshrUncacheableLatency::total 134622.078969                       # average ReadReq mshr uncacheable latency ((Tick/Count))
board.cache_hierarchy.l1dcaches.StoreCondReq.hits::processor.cores.core.data      2115703                       # number of StoreCondReq hits (Count)
board.cache_hierarchy.l1dcaches.StoreCondReq.hits::total      2115703                       # number of StoreCondReq hits (Count)
board.cache_hierarchy.l1dcaches.StoreCondReq.accesses::processor.cores.core.data      2115703                       # number of StoreCondReq accesses(hits+misses) (Count)
board.cache_hierarchy.l1dcaches.StoreCondReq.accesses::total      2115703                       # number of StoreCondReq accesses(hits+misses) (Count)
board.cache_hierarchy.l1dcaches.SwapReq.hits::processor.cores.core.data      2201623                       # number of SwapReq hits (Count)
board.cache_hierarchy.l1dcaches.SwapReq.hits::total      2201623                       # number of SwapReq hits (Count)
board.cache_hierarchy.l1dcaches.SwapReq.misses::processor.cores.core.data        10402                       # number of SwapReq misses (Count)
board.cache_hierarchy.l1dcaches.SwapReq.misses::total        10402                       # number of SwapReq misses (Count)
board.cache_hierarchy.l1dcaches.SwapReq.missLatency::processor.cores.core.data    191499000                       # number of SwapReq miss ticks (Tick)
board.cache_hierarchy.l1dcaches.SwapReq.missLatency::total    191499000                       # number of SwapReq miss ticks (Tick)
board.cache_hierarchy.l1dcaches.SwapReq.accesses::processor.cores.core.data      2212025                       # number of SwapReq accesses(hits+misses) (Count)
board.cache_hierarchy.l1dcaches.SwapReq.accesses::total      2212025                       # number of SwapReq accesses(hits+misses) (Count)
board.cache_hierarchy.l1dcaches.SwapReq.missRate::processor.cores.core.data     0.004702                       # miss rate for SwapReq accesses (Ratio)
board.cache_hierarchy.l1dcaches.SwapReq.missRate::total     0.004702                       # miss rate for SwapReq accesses (Ratio)
board.cache_hierarchy.l1dcaches.SwapReq.avgMissLatency::processor.cores.core.data 18409.825034                       # average SwapReq miss latency ((Tick/Count))
board.cache_hierarchy.l1dcaches.SwapReq.avgMissLatency::total 18409.825034                       # average SwapReq miss latency ((Tick/Count))
board.cache_hierarchy.l1dcaches.SwapReq.mshrHits::processor.cores.core.data           20                       # number of SwapReq MSHR hits (Count)
board.cache_hierarchy.l1dcaches.SwapReq.mshrHits::total           20                       # number of SwapReq MSHR hits (Count)
board.cache_hierarchy.l1dcaches.SwapReq.mshrMisses::processor.cores.core.data        10382                       # number of SwapReq MSHR misses (Count)
board.cache_hierarchy.l1dcaches.SwapReq.mshrMisses::total        10382                       # number of SwapReq MSHR misses (Count)
board.cache_hierarchy.l1dcaches.SwapReq.mshrUncacheable::processor.cores.core.data          521                       # number of SwapReq MSHR uncacheable (Count)
board.cache_hierarchy.l1dcaches.SwapReq.mshrUncacheable::total          521                       # number of SwapReq MSHR uncacheable (Count)
board.cache_hierarchy.l1dcaches.SwapReq.mshrMissLatency::processor.cores.core.data    180487000                       # number of SwapReq MSHR miss ticks (Tick)
board.cache_hierarchy.l1dcaches.SwapReq.mshrMissLatency::total    180487000                       # number of SwapReq MSHR miss ticks (Tick)
board.cache_hierarchy.l1dcaches.SwapReq.mshrMissRate::processor.cores.core.data     0.004693                       # mshr miss rate for SwapReq accesses (Ratio)
board.cache_hierarchy.l1dcaches.SwapReq.mshrMissRate::total     0.004693                       # mshr miss rate for SwapReq accesses (Ratio)
board.cache_hierarchy.l1dcaches.SwapReq.avgMshrMissLatency::processor.cores.core.data 17384.607975                       # average SwapReq mshr miss latency ((Tick/Count))
board.cache_hierarchy.l1dcaches.SwapReq.avgMshrMissLatency::total 17384.607975                       # average SwapReq mshr miss latency ((Tick/Count))
board.cache_hierarchy.l1dcaches.WriteReq.hits::processor.cores.core.data    872513493                       # number of WriteReq hits (Count)
board.cache_hierarchy.l1dcaches.WriteReq.hits::total    872513493                       # number of WriteReq hits (Count)
board.cache_hierarchy.l1dcaches.WriteReq.misses::processor.cores.core.data       855231                       # number of WriteReq misses (Count)
board.cache_hierarchy.l1dcaches.WriteReq.misses::total       855231                       # number of WriteReq misses (Count)
board.cache_hierarchy.l1dcaches.WriteReq.missLatency::processor.cores.core.data  50514106617                       # number of WriteReq miss ticks (Tick)
board.cache_hierarchy.l1dcaches.WriteReq.missLatency::total  50514106617                       # number of WriteReq miss ticks (Tick)
board.cache_hierarchy.l1dcaches.WriteReq.accesses::processor.cores.core.data    873368724                       # number of WriteReq accesses(hits+misses) (Count)
board.cache_hierarchy.l1dcaches.WriteReq.accesses::total    873368724                       # number of WriteReq accesses(hits+misses) (Count)
board.cache_hierarchy.l1dcaches.WriteReq.missRate::processor.cores.core.data     0.000979                       # miss rate for WriteReq accesses (Ratio)
board.cache_hierarchy.l1dcaches.WriteReq.missRate::total     0.000979                       # miss rate for WriteReq accesses (Ratio)
board.cache_hierarchy.l1dcaches.WriteReq.avgMissLatency::processor.cores.core.data 59064.868576                       # average WriteReq miss latency ((Tick/Count))
board.cache_hierarchy.l1dcaches.WriteReq.avgMissLatency::total 59064.868576                       # average WriteReq miss latency ((Tick/Count))
board.cache_hierarchy.l1dcaches.WriteReq.mshrHits::processor.cores.core.data       699250                       # number of WriteReq MSHR hits (Count)
board.cache_hierarchy.l1dcaches.WriteReq.mshrHits::total       699250                       # number of WriteReq MSHR hits (Count)
board.cache_hierarchy.l1dcaches.WriteReq.mshrMisses::processor.cores.core.data       155981                       # number of WriteReq MSHR misses (Count)
board.cache_hierarchy.l1dcaches.WriteReq.mshrMisses::total       155981                       # number of WriteReq MSHR misses (Count)
board.cache_hierarchy.l1dcaches.WriteReq.mshrUncacheable::processor.cores.core.data         1730                       # number of WriteReq MSHR uncacheable (Count)
board.cache_hierarchy.l1dcaches.WriteReq.mshrUncacheable::total         1730                       # number of WriteReq MSHR uncacheable (Count)
board.cache_hierarchy.l1dcaches.WriteReq.mshrMissLatency::processor.cores.core.data   6772450971                       # number of WriteReq MSHR miss ticks (Tick)
board.cache_hierarchy.l1dcaches.WriteReq.mshrMissLatency::total   6772450971                       # number of WriteReq MSHR miss ticks (Tick)
board.cache_hierarchy.l1dcaches.WriteReq.mshrMissRate::processor.cores.core.data     0.000179                       # mshr miss rate for WriteReq accesses (Ratio)
board.cache_hierarchy.l1dcaches.WriteReq.mshrMissRate::total     0.000179                       # mshr miss rate for WriteReq accesses (Ratio)
board.cache_hierarchy.l1dcaches.WriteReq.avgMshrMissLatency::processor.cores.core.data 43418.435393                       # average WriteReq mshr miss latency ((Tick/Count))
board.cache_hierarchy.l1dcaches.WriteReq.avgMshrMissLatency::total 43418.435393                       # average WriteReq mshr miss latency ((Tick/Count))
board.cache_hierarchy.l1dcaches.power_state.pwrStateResidencyTicks::UNDEFINED 7436149929750                       # Cumulative time (in ticks) in various power states (Tick)
board.cache_hierarchy.l1dcaches.prefetcher.demandMshrMisses     17982538                       # demands not covered by prefetchs (Count)
board.cache_hierarchy.l1dcaches.prefetcher.pfIssued      2000388                       # number of hwpf issued (Count)
board.cache_hierarchy.l1dcaches.prefetcher.pfUnused       165417                       # number of HardPF blocks evicted w/o reference (Count)
board.cache_hierarchy.l1dcaches.prefetcher.pfUseful      1516786                       # number of useful prefetch (Count)
board.cache_hierarchy.l1dcaches.prefetcher.pfUsefulButMiss          449                       # number of hit on prefetch but cache block is not in an usable state (Count)
board.cache_hierarchy.l1dcaches.prefetcher.accuracy     0.758246                       # accuracy of the prefetcher (Count)
board.cache_hierarchy.l1dcaches.prefetcher.coverage     0.077787                       # coverage brought by this prefetcher (Count)
board.cache_hierarchy.l1dcaches.prefetcher.pfHitInCache       165420                       # number of prefetches hitting in cache (Count)
board.cache_hierarchy.l1dcaches.prefetcher.pfHitInMSHR       135353                       # number of prefetches hitting in a MSHR (Count)
board.cache_hierarchy.l1dcaches.prefetcher.pfHitInWB            1                       # number of prefetches hit in the Write Buffer (Count)
board.cache_hierarchy.l1dcaches.prefetcher.pfLate       300774                       # number of late prefetches (hitting in cache, MSHR or WB) (Count)
board.cache_hierarchy.l1dcaches.prefetcher.pfIdentified      2579801                       # number of prefetch candidates identified (Count)
board.cache_hierarchy.l1dcaches.prefetcher.pfBufferHit       429797                       # number of redundant prefetches already in prefetch queue (Count)
board.cache_hierarchy.l1dcaches.prefetcher.pfInCache            0                       # number of redundant prefetches already in cache/mshr dropped (Count)
board.cache_hierarchy.l1dcaches.prefetcher.pfRemovedDemand         3303                       # number of prefetches dropped due to a demand for the same address (Count)
board.cache_hierarchy.l1dcaches.prefetcher.pfRemovedFull            0                       # number of prefetches dropped due to prefetch queue size (Count)
board.cache_hierarchy.l1dcaches.prefetcher.pfSpanPage       339967                       # number of prefetches that crossed the page (Count)
board.cache_hierarchy.l1dcaches.prefetcher.pfUsefulSpanPage          244                       # number of prefetches that is useful and crossed the page (Count)
board.cache_hierarchy.l1dcaches.prefetcher.power_state.pwrStateResidencyTicks::UNDEFINED 7436149929750                       # Cumulative time (in ticks) in various power states (Tick)
board.cache_hierarchy.l1dcaches.tags.tagsInUse   511.990618                       # Average ticks per tags in use ((Tick/Count))
board.cache_hierarchy.l1dcaches.tags.totalRefs   1924417127                       # Total number of references to valid blocks. (Count)
board.cache_hierarchy.l1dcaches.tags.sampledRefs     19691742                       # Sample count of references to valid blocks. (Count)
board.cache_hierarchy.l1dcaches.tags.avgRefs    97.727115                       # Average number of references to valid blocks. ((Count/Count))
board.cache_hierarchy.l1dcaches.tags.warmupTick 5436150177000                       # The tick when the warmup percentage was hit. (Tick)
board.cache_hierarchy.l1dcaches.tags.occupancies::cache_hierarchy.l1dcaches.prefetcher   128.535491                       # Average occupied blocks per tick, per requestor ((Count/Tick))
board.cache_hierarchy.l1dcaches.tags.occupancies::processor.cores.core.data   383.455127                       # Average occupied blocks per tick, per requestor ((Count/Tick))
board.cache_hierarchy.l1dcaches.tags.avgOccs::cache_hierarchy.l1dcaches.prefetcher     0.251046                       # Average percentage of cache occupancy ((Ratio/Tick))
board.cache_hierarchy.l1dcaches.tags.avgOccs::processor.cores.core.data     0.748936                       # Average percentage of cache occupancy ((Ratio/Tick))
board.cache_hierarchy.l1dcaches.tags.avgOccs::total     0.999982                       # Average percentage of cache occupancy ((Ratio/Tick))
board.cache_hierarchy.l1dcaches.tags.occupanciesTaskId::1022            1                       # Occupied blocks per task id (Count)
board.cache_hierarchy.l1dcaches.tags.occupanciesTaskId::1024          511                       # Occupied blocks per task id (Count)
board.cache_hierarchy.l1dcaches.tags.ageTaskId_1022::1            1                       # Occupied blocks per task id, per block age (Count)
board.cache_hierarchy.l1dcaches.tags.ageTaskId_1024::0          177                       # Occupied blocks per task id, per block age (Count)
board.cache_hierarchy.l1dcaches.tags.ageTaskId_1024::1          309                       # Occupied blocks per task id, per block age (Count)
board.cache_hierarchy.l1dcaches.tags.ageTaskId_1024::2           13                       # Occupied blocks per task id, per block age (Count)
board.cache_hierarchy.l1dcaches.tags.ageTaskId_1024::3           12                       # Occupied blocks per task id, per block age (Count)
board.cache_hierarchy.l1dcaches.tags.ratioOccsTaskId::1022     0.001953                       # Ratio of occupied blocks and all blocks, per task id (Ratio)
board.cache_hierarchy.l1dcaches.tags.ratioOccsTaskId::1024     0.998047                       # Ratio of occupied blocks and all blocks, per task id (Ratio)
board.cache_hierarchy.l1dcaches.tags.tagAccesses  15414220302                       # Number of tag accesses (Count)
board.cache_hierarchy.l1dcaches.tags.dataAccesses  15414220302                       # Number of data accesses (Count)
board.cache_hierarchy.l1dcaches.tags.power_state.pwrStateResidencyTicks::UNDEFINED 7436149929750                       # Cumulative time (in ticks) in various power states (Tick)
board.cache_hierarchy.l1icaches.demandHits::processor.cores.core.inst    687830677                       # number of demand (read+write) hits (Count)
board.cache_hierarchy.l1icaches.demandHits::total    687830677                       # number of demand (read+write) hits (Count)
board.cache_hierarchy.l1icaches.overallHits::processor.cores.core.inst    687830677                       # number of overall hits (Count)
board.cache_hierarchy.l1icaches.overallHits::total    687830677                       # number of overall hits (Count)
board.cache_hierarchy.l1icaches.demandMisses::processor.cores.core.inst       243816                       # number of demand (read+write) misses (Count)
board.cache_hierarchy.l1icaches.demandMisses::total       243816                       # number of demand (read+write) misses (Count)
board.cache_hierarchy.l1icaches.overallMisses::processor.cores.core.inst       243816                       # number of overall misses (Count)
board.cache_hierarchy.l1icaches.overallMisses::total       243816                       # number of overall misses (Count)
board.cache_hierarchy.l1icaches.demandMissLatency::processor.cores.core.inst   7329873000                       # number of demand (read+write) miss ticks (Tick)
board.cache_hierarchy.l1icaches.demandMissLatency::total   7329873000                       # number of demand (read+write) miss ticks (Tick)
board.cache_hierarchy.l1icaches.overallMissLatency::processor.cores.core.inst   7329873000                       # number of overall miss ticks (Tick)
board.cache_hierarchy.l1icaches.overallMissLatency::total   7329873000                       # number of overall miss ticks (Tick)
board.cache_hierarchy.l1icaches.demandAccesses::processor.cores.core.inst    688074493                       # number of demand (read+write) accesses (Count)
board.cache_hierarchy.l1icaches.demandAccesses::total    688074493                       # number of demand (read+write) accesses (Count)
board.cache_hierarchy.l1icaches.overallAccesses::processor.cores.core.inst    688074493                       # number of overall (read+write) accesses (Count)
board.cache_hierarchy.l1icaches.overallAccesses::total    688074493                       # number of overall (read+write) accesses (Count)
board.cache_hierarchy.l1icaches.demandMissRate::processor.cores.core.inst     0.000354                       # miss rate for demand accesses (Ratio)
board.cache_hierarchy.l1icaches.demandMissRate::total     0.000354                       # miss rate for demand accesses (Ratio)
board.cache_hierarchy.l1icaches.overallMissRate::processor.cores.core.inst     0.000354                       # miss rate for overall accesses (Ratio)
board.cache_hierarchy.l1icaches.overallMissRate::total     0.000354                       # miss rate for overall accesses (Ratio)
board.cache_hierarchy.l1icaches.demandAvgMissLatency::processor.cores.core.inst 30063.133675                       # average overall miss latency in ticks ((Tick/Count))
board.cache_hierarchy.l1icaches.demandAvgMissLatency::total 30063.133675                       # average overall miss latency in ticks ((Tick/Count))
board.cache_hierarchy.l1icaches.overallAvgMissLatency::processor.cores.core.inst 30063.133675                       # average overall miss latency ((Tick/Count))
board.cache_hierarchy.l1icaches.overallAvgMissLatency::total 30063.133675                       # average overall miss latency ((Tick/Count))
board.cache_hierarchy.l1icaches.blockedCycles::no_mshrs            0                       # number of cycles access was blocked (Cycle)
board.cache_hierarchy.l1icaches.blockedCycles::no_targets            0                       # number of cycles access was blocked (Cycle)
board.cache_hierarchy.l1icaches.blockedCauses::no_mshrs            0                       # number of times access was blocked (Count)
board.cache_hierarchy.l1icaches.blockedCauses::no_targets            0                       # number of times access was blocked (Count)
board.cache_hierarchy.l1icaches.avgBlocked::no_mshrs          nan                       # average number of cycles each access was blocked ((Cycle/Count))
board.cache_hierarchy.l1icaches.avgBlocked::no_targets          nan                       # average number of cycles each access was blocked ((Cycle/Count))
board.cache_hierarchy.l1icaches.demandMshrHits::processor.cores.core.inst        31194                       # number of demand (read+write) MSHR hits (Count)
board.cache_hierarchy.l1icaches.demandMshrHits::total        31194                       # number of demand (read+write) MSHR hits (Count)
board.cache_hierarchy.l1icaches.overallMshrHits::processor.cores.core.inst        31194                       # number of overall MSHR hits (Count)
board.cache_hierarchy.l1icaches.overallMshrHits::total        31194                       # number of overall MSHR hits (Count)
board.cache_hierarchy.l1icaches.demandMshrMisses::processor.cores.core.inst       212622                       # number of demand (read+write) MSHR misses (Count)
board.cache_hierarchy.l1icaches.demandMshrMisses::total       212622                       # number of demand (read+write) MSHR misses (Count)
board.cache_hierarchy.l1icaches.overallMshrMisses::processor.cores.core.inst       212622                       # number of overall MSHR misses (Count)
board.cache_hierarchy.l1icaches.overallMshrMisses::total       212622                       # number of overall MSHR misses (Count)
board.cache_hierarchy.l1icaches.demandMshrMissLatency::processor.cores.core.inst   6089506000                       # number of demand (read+write) MSHR miss ticks (Tick)
board.cache_hierarchy.l1icaches.demandMshrMissLatency::total   6089506000                       # number of demand (read+write) MSHR miss ticks (Tick)
board.cache_hierarchy.l1icaches.overallMshrMissLatency::processor.cores.core.inst   6089506000                       # number of overall MSHR miss ticks (Tick)
board.cache_hierarchy.l1icaches.overallMshrMissLatency::total   6089506000                       # number of overall MSHR miss ticks (Tick)
board.cache_hierarchy.l1icaches.demandMshrMissRate::processor.cores.core.inst     0.000309                       # mshr miss ratio for demand accesses (Ratio)
board.cache_hierarchy.l1icaches.demandMshrMissRate::total     0.000309                       # mshr miss ratio for demand accesses (Ratio)
board.cache_hierarchy.l1icaches.overallMshrMissRate::processor.cores.core.inst     0.000309                       # mshr miss ratio for overall accesses (Ratio)
board.cache_hierarchy.l1icaches.overallMshrMissRate::total     0.000309                       # mshr miss ratio for overall accesses (Ratio)
board.cache_hierarchy.l1icaches.demandAvgMshrMissLatency::processor.cores.core.inst 28640.056062                       # average overall mshr miss latency ((Tick/Count))
board.cache_hierarchy.l1icaches.demandAvgMshrMissLatency::total 28640.056062                       # average overall mshr miss latency ((Tick/Count))
board.cache_hierarchy.l1icaches.overallAvgMshrMissLatency::processor.cores.core.inst 28640.056062                       # average overall mshr miss latency ((Tick/Count))
board.cache_hierarchy.l1icaches.overallAvgMshrMissLatency::total 28640.056062                       # average overall mshr miss latency ((Tick/Count))
board.cache_hierarchy.l1icaches.replacements       212110                       # number of replacements (Count)
board.cache_hierarchy.l1icaches.ReadReq.hits::processor.cores.core.inst    687830677                       # number of ReadReq hits (Count)
board.cache_hierarchy.l1icaches.ReadReq.hits::total    687830677                       # number of ReadReq hits (Count)
board.cache_hierarchy.l1icaches.ReadReq.misses::processor.cores.core.inst       243816                       # number of ReadReq misses (Count)
board.cache_hierarchy.l1icaches.ReadReq.misses::total       243816                       # number of ReadReq misses (Count)
board.cache_hierarchy.l1icaches.ReadReq.missLatency::processor.cores.core.inst   7329873000                       # number of ReadReq miss ticks (Tick)
board.cache_hierarchy.l1icaches.ReadReq.missLatency::total   7329873000                       # number of ReadReq miss ticks (Tick)
board.cache_hierarchy.l1icaches.ReadReq.accesses::processor.cores.core.inst    688074493                       # number of ReadReq accesses(hits+misses) (Count)
board.cache_hierarchy.l1icaches.ReadReq.accesses::total    688074493                       # number of ReadReq accesses(hits+misses) (Count)
board.cache_hierarchy.l1icaches.ReadReq.missRate::processor.cores.core.inst     0.000354                       # miss rate for ReadReq accesses (Ratio)
board.cache_hierarchy.l1icaches.ReadReq.missRate::total     0.000354                       # miss rate for ReadReq accesses (Ratio)
board.cache_hierarchy.l1icaches.ReadReq.avgMissLatency::processor.cores.core.inst 30063.133675                       # average ReadReq miss latency ((Tick/Count))
board.cache_hierarchy.l1icaches.ReadReq.avgMissLatency::total 30063.133675                       # average ReadReq miss latency ((Tick/Count))
board.cache_hierarchy.l1icaches.ReadReq.mshrHits::processor.cores.core.inst        31194                       # number of ReadReq MSHR hits (Count)
board.cache_hierarchy.l1icaches.ReadReq.mshrHits::total        31194                       # number of ReadReq MSHR hits (Count)
board.cache_hierarchy.l1icaches.ReadReq.mshrMisses::processor.cores.core.inst       212622                       # number of ReadReq MSHR misses (Count)
board.cache_hierarchy.l1icaches.ReadReq.mshrMisses::total       212622                       # number of ReadReq MSHR misses (Count)
board.cache_hierarchy.l1icaches.ReadReq.mshrMissLatency::processor.cores.core.inst   6089506000                       # number of ReadReq MSHR miss ticks (Tick)
board.cache_hierarchy.l1icaches.ReadReq.mshrMissLatency::total   6089506000                       # number of ReadReq MSHR miss ticks (Tick)
board.cache_hierarchy.l1icaches.ReadReq.mshrMissRate::processor.cores.core.inst     0.000309                       # mshr miss rate for ReadReq accesses (Ratio)
board.cache_hierarchy.l1icaches.ReadReq.mshrMissRate::total     0.000309                       # mshr miss rate for ReadReq accesses (Ratio)
board.cache_hierarchy.l1icaches.ReadReq.avgMshrMissLatency::processor.cores.core.inst 28640.056062                       # average ReadReq mshr miss latency ((Tick/Count))
board.cache_hierarchy.l1icaches.ReadReq.avgMshrMissLatency::total 28640.056062                       # average ReadReq mshr miss latency ((Tick/Count))
board.cache_hierarchy.l1icaches.power_state.pwrStateResidencyTicks::UNDEFINED 7436149929750                       # Cumulative time (in ticks) in various power states (Tick)
board.cache_hierarchy.l1icaches.prefetcher.demandMshrMisses       212622                       # demands not covered by prefetchs (Count)
board.cache_hierarchy.l1icaches.prefetcher.pfIssued            0                       # number of hwpf issued (Count)
board.cache_hierarchy.l1icaches.prefetcher.pfUseful            0                       # number of useful prefetch (Count)
board.cache_hierarchy.l1icaches.prefetcher.pfUsefulButMiss            0                       # number of hit on prefetch but cache block is not in an usable state (Count)
board.cache_hierarchy.l1icaches.prefetcher.accuracy          nan                       # accuracy of the prefetcher (Count)
board.cache_hierarchy.l1icaches.prefetcher.coverage            0                       # coverage brought by this prefetcher (Count)
board.cache_hierarchy.l1icaches.prefetcher.pfHitInCache            0                       # number of prefetches hitting in cache (Count)
board.cache_hierarchy.l1icaches.prefetcher.pfHitInMSHR            0                       # number of prefetches hitting in a MSHR (Count)
board.cache_hierarchy.l1icaches.prefetcher.pfHitInWB            0                       # number of prefetches hit in the Write Buffer (Count)
board.cache_hierarchy.l1icaches.prefetcher.pfLate            0                       # number of late prefetches (hitting in cache, MSHR or WB) (Count)
board.cache_hierarchy.l1icaches.prefetcher.pfIdentified            0                       # number of prefetch candidates identified (Count)
board.cache_hierarchy.l1icaches.prefetcher.pfBufferHit            0                       # number of redundant prefetches already in prefetch queue (Count)
board.cache_hierarchy.l1icaches.prefetcher.pfInCache            0                       # number of redundant prefetches already in cache/mshr dropped (Count)
board.cache_hierarchy.l1icaches.prefetcher.pfRemovedDemand            0                       # number of prefetches dropped due to a demand for the same address (Count)
board.cache_hierarchy.l1icaches.prefetcher.pfRemovedFull            0                       # number of prefetches dropped due to prefetch queue size (Count)
board.cache_hierarchy.l1icaches.prefetcher.pfSpanPage            0                       # number of prefetches that crossed the page (Count)
board.cache_hierarchy.l1icaches.prefetcher.pfUsefulSpanPage            0                       # number of prefetches that is useful and crossed the page (Count)
board.cache_hierarchy.l1icaches.prefetcher.power_state.pwrStateResidencyTicks::UNDEFINED 7436149929750                       # Cumulative time (in ticks) in various power states (Tick)
board.cache_hierarchy.l1icaches.tags.tagsInUse   511.986762                       # Average ticks per tags in use ((Tick/Count))
board.cache_hierarchy.l1icaches.tags.totalRefs    688043299                       # Total number of references to valid blocks. (Count)
board.cache_hierarchy.l1icaches.tags.sampledRefs       212622                       # Sample count of references to valid blocks. (Count)
board.cache_hierarchy.l1icaches.tags.avgRefs  3235.992978                       # Average number of references to valid blocks. ((Count/Count))
board.cache_hierarchy.l1icaches.tags.warmupTick 5436150008000                       # The tick when the warmup percentage was hit. (Tick)
board.cache_hierarchy.l1icaches.tags.occupancies::processor.cores.core.inst   511.986762                       # Average occupied blocks per tick, per requestor ((Count/Tick))
board.cache_hierarchy.l1icaches.tags.avgOccs::processor.cores.core.inst     0.999974                       # Average percentage of cache occupancy ((Ratio/Tick))
board.cache_hierarchy.l1icaches.tags.avgOccs::total     0.999974                       # Average percentage of cache occupancy ((Ratio/Tick))
board.cache_hierarchy.l1icaches.tags.occupanciesTaskId::1024          512                       # Occupied blocks per task id (Count)
board.cache_hierarchy.l1icaches.tags.ageTaskId_1024::3           51                       # Occupied blocks per task id, per block age (Count)
board.cache_hierarchy.l1icaches.tags.ageTaskId_1024::4          461                       # Occupied blocks per task id, per block age (Count)
[...]
board.processor.cores.core.fetch.nisnDist::min_value            0                       # Number of instructions fetched each cycle (Total) (Count)
board.processor.cores.core.fetch.nisnDist::max_value            8                       # Number of instructions fetched each cycle (Total) (Count)
board.processor.cores.core.fetch.nisnDist::total   1973093267                       # Number of instructions fetched each cycle (Total) (Count)
board.processor.cores.core.fetchStats0.numInsts   6346373884                       # Number of instructions fetched (thread level) (Count)
board.processor.cores.core.fetchStats0.numOps            0                       # Number of ops (including micro ops) fetched (thread level) (Count)
board.processor.cores.core.fetchStats0.fetchRate     3.213894                       # Number of inst fetches per cycle ((Count/Cycle))
board.processor.cores.core.fetchStats0.numBranches    537849866                       # Number of branches fetched (Count)
board.processor.cores.core.fetchStats0.branchRate     0.272375                       # Number of branch fetches per cycle (Ratio)
board.processor.cores.core.fetchStats0.icacheStallCycles      9068107                       # ICache total stall cycles (Cycle)
board.processor.cores.core.fetchStats0.numFetchSuspends            0                       # Number of times Execute suspended instruction fetching (Count)
board.processor.cores.core.iew.idleCycles            0                       # Number of cycles IEW is idle (Cycle)
board.processor.cores.core.iew.squashCycles      8285954                       # Number of cycles IEW is squashing (Cycle)
board.processor.cores.core.iew.blockCycles     64853299                       # Number of cycles IEW is blocking (Cycle)
board.processor.cores.core.iew.unblockCycles     16806122                       # Number of cycles IEW is unblocking (Cycle)
board.processor.cores.core.iew.dispatchedInsts   6151264500                       # Number of instructions dispatched to IQ (Count)
board.processor.cores.core.iew.dispSquashedInsts       277134                       # Number of squashed instructions skipped by dispatch (Count)
board.processor.cores.core.iew.dispLoadInsts   1995427158                       # Number of dispatched load instructions (Count)
board.processor.cores.core.iew.dispStoreInsts    894460011                       # Number of dispatched store instructions (Count)
board.processor.cores.core.iew.dispNonSpecInsts      6802010                       # Number of dispatched non-speculative instructions (Count)
board.processor.cores.core.iew.iqFullEvents      6459018                       # Number of times the IQ has become full, causing a stall (Count)
board.processor.cores.core.iew.lsqFullEvents      5084147                       # Number of times the LSQ has become full, causing a stall (Count)
board.processor.cores.core.iew.memOrderViolationEvents      4435246                       # Number of memory order violations (Count)
board.processor.cores.core.iew.predictedTakenIncorrect      1006804                       # Number of branches that were predicted taken incorrectly (Count)
board.processor.cores.core.iew.predictedNotTakenIncorrect      2965565                       # Number of branches that were predicted not taken incorrectly (Count)
board.processor.cores.core.iew.branchMispredicts      3972369                       # Number of branch mispredicts detected at execute (Count)
board.processor.cores.core.iew.instsToCommit   6099134006                       # Cumulative count of insts sent to commit (Count)
board.processor.cores.core.iew.writebackCount   6098048640                       # Cumulative count of insts written-back (Count)
board.processor.cores.core.iew.producerInst   4612144043                       # Number of instructions producing a value (Count)
board.processor.cores.core.iew.consumerInst   5884515558                       # Number of instructions consuming a value (Count)
board.processor.cores.core.iew.wbRate        3.088139                       # Insts written-back per cycle ((Count/Cycle))
board.processor.cores.core.iew.wbFanout      0.783776                       # Average fanout of values written-back ((Count/Count))
board.processor.cores.core.lsq0.forwLoads    936666394                       # Number of loads that had data forwarded from stores (Count)
board.processor.cores.core.lsq0.squashedLoads     33755736                       # Number of loads squashed (Count)
board.processor.cores.core.lsq0.ignoredResponses        19759                       # Number of memory responses ignored because the instruction is squashed (Count)
board.processor.cores.core.lsq0.memOrderViolation      4435246                       # Number of memory ordering violations (Count)
board.processor.cores.core.lsq0.squashedStores     16756583                       # Number of stores squashed (Count)
board.processor.cores.core.lsq0.rescheduledLoads         4268                       # Number of loads that were rescheduled (Count)
board.processor.cores.core.lsq0.blockedByCache          503                       # Number of times an access to memory failed due to the cache being blocked (Count)
board.processor.cores.core.lsq0.loadToUse::samples   1961671394                       # Distribution of cycle latency between the first time a load is issued and its completion (Unspecified)
board.processor.cores.core.lsq0.loadToUse::mean     2.303737                       # Distribution of cycle latency between the first time a load is issued and its completion (Unspecified)
board.processor.cores.core.lsq0.loadToUse::stdev     1.499553                       # Distribution of cycle latency between the first time a load is issued and its completion (Unspecified)
board.processor.cores.core.lsq0.loadToUse::0-9   1943222866     99.06%     99.06% # Distribution of cycle latency between the first time a load is issued and its completion (Unspecified)
board.processor.cores.core.lsq0.loadToUse::10-19     18284259      0.93%     99.99% # Distribution of cycle latency between the first time a load is issued and its completion (Unspecified)
board.processor.cores.core.lsq0.loadToUse::20-29        26477      0.00%     99.99% # Distribution of cycle latency between the first time a load is issued and its completion (Unspecified)
board.processor.cores.core.lsq0.loadToUse::30-39         8610      0.00%     99.99% # Distribution of cycle latency between the first time a load is issued and its completion (Unspecified)
board.processor.cores.core.lsq0.loadToUse::40-49         8542      0.00%     99.99% # Distribution of cycle latency between the first time a load is issued and its completion (Unspecified)
board.processor.cores.core.lsq0.loadToUse::50-59        16485      0.00%     99.99% # Distribution of cycle latency between the first time a load is issued and its completion (Unspecified)
board.processor.cores.core.lsq0.loadToUse::60-69        43163      0.00%    100.00% # Distribution of cycle latency between the first time a load is issued and its completion (Unspecified)
board.processor.cores.core.lsq0.loadToUse::70-79        17307      0.00%    100.00% # Distribution of cycle latency between the first time a load is issued and its completion (Unspecified)
board.processor.cores.core.lsq0.loadToUse::80-89        11833      0.00%    100.00% # Distribution of cycle latency between the first time a load is issued and its completion (Unspecified)
board.processor.cores.core.lsq0.loadToUse::90-99        12921      0.00%    100.00% # Distribution of cycle latency between the first time a load is issued and its completion (Unspecified)
board.processor.cores.core.lsq0.loadToUse::100-109         3140      0.00%    100.00% # Distribution of cycle latency between the first time a load is issued and its completion (Unspecified)
board.processor.cores.core.lsq0.loadToUse::110-119         2209      0.00%    100.00% # Distribution of cycle latency between the first time a load is issued and its completion (Unspecified)
board.processor.cores.core.lsq0.loadToUse::120-129         1885      0.00%    100.00% # Distribution of cycle latency between the first time a load is issued and its completion (Unspecified)
board.processor.cores.core.lsq0.loadToUse::130-139         2591      0.00%    100.00% # Distribution of cycle latency between the first time a load is issued and its completion (Unspecified)
board.processor.cores.core.lsq0.loadToUse::140-149         1139      0.00%    100.00% # Distribution of cycle latency between the first time a load is issued and its completion (Unspecified)
board.processor.cores.core.lsq0.loadToUse::150-159         1358      0.00%    100.00% # Distribution of cycle latency between the first time a load is issued and its completion (Unspecified)
board.processor.cores.core.lsq0.loadToUse::160-169         1713      0.00%    100.00% # Distribution of cycle latency between the first time a load is issued and its completion (Unspecified)
board.processor.cores.core.lsq0.loadToUse::170-179          839      0.00%    100.00% # Distribution of cycle latency between the first time a load is issued and its completion (Unspecified)
board.processor.cores.core.lsq0.loadToUse::180-189          657      0.00%    100.00% # Distribution of cycle latency between the first time a load is issued and its completion (Unspecified)
board.processor.cores.core.lsq0.loadToUse::190-199          505      0.00%    100.00% # Distribution of cycle latency between the first time a load is issued and its completion (Unspecified)
board.processor.cores.core.lsq0.loadToUse::200-209          439      0.00%    100.00% # Distribution of cycle latency between the first time a load is issued and its completion (Unspecified)
board.processor.cores.core.lsq0.loadToUse::210-219          293      0.00%    100.00% # Distribution of cycle latency between the first time a load is issued and its completion (Unspecified)
board.processor.cores.core.lsq0.loadToUse::220-229          139      0.00%    100.00% # Distribution of cycle latency between the first time a load is issued and its completion (Unspecified)
board.processor.cores.core.lsq0.loadToUse::230-239          120      0.00%    100.00% # Distribution of cycle latency between the first time a load is issued and its completion (Unspecified)
board.processor.cores.core.lsq0.loadToUse::240-249          102      0.00%    100.00% # Distribution of cycle latency between the first time a load is issued and its completion (Unspecified)
board.processor.cores.core.lsq0.loadToUse::250-259           91      0.00%    100.00% # Distribution of cycle latency between the first time a load is issued and its completion (Unspecified)
board.processor.cores.core.lsq0.loadToUse::260-269          132      0.00%    100.00% # Distribution of cycle latency between the first time a load is issued and its completion (Unspecified)
board.processor.cores.core.lsq0.loadToUse::270-279          114      0.00%    100.00% # Distribution of cycle latency between the first time a load is issued and its completion (Unspecified)
board.processor.cores.core.lsq0.loadToUse::280-289          152      0.00%    100.00% # Distribution of cycle latency between the first time a load is issued and its completion (Unspecified)
board.processor.cores.core.lsq0.loadToUse::290-299          168      0.00%    100.00% # Distribution of cycle latency between the first time a load is issued and its completion (Unspecified)
board.processor.cores.core.lsq0.loadToUse::overflows         1145      0.00%    100.00% # Distribution of cycle latency between the first time a load is issued and its completion (Unspecified)
board.processor.cores.core.lsq0.loadToUse::min_value            2                       # Distribution of cycle latency between the first time a load is issued and its completion (Unspecified)
board.processor.cores.core.lsq0.loadToUse::max_value          513                       # Distribution of cycle latency between the first time a load is issued and its completion (Unspecified)
board.processor.cores.core.lsq0.loadToUse::total   1961671394                       # Distribution of cycle latency between the first time a load is issued and its completion (Unspecified)
board.processor.cores.core.mmu.dtb.readHits   1983255717                       # read hits (Count)
board.processor.cores.core.mmu.dtb.readMisses        66211                       # read misses (Count)
board.processor.cores.core.mmu.dtb.readAccesses   1983321928                       # read accesses (Count)
board.processor.cores.core.mmu.dtb.writeHits    886827367                       # write hits (Count)
board.processor.cores.core.mmu.dtb.writeMisses        18069                       # write misses (Count)
board.processor.cores.core.mmu.dtb.writeAccesses    886845436                       # write accesses (Count)
board.processor.cores.core.mmu.dtb.hits    2870083084                       # Total TLB (read and write) hits (Count)
board.processor.cores.core.mmu.dtb.misses        84280                       # Total TLB (read and write) misses (Count)
board.processor.cores.core.mmu.dtb.accesses   2870167364                       # Total TLB (read and write) accesses (Count)
board.processor.cores.core.mmu.dtb.walker.power_state.pwrStateResidencyTicks::UNDEFINED 7436149929750                       # Cumulative time (in ticks) in various power states (Tick)
board.processor.cores.core.mmu.itb.readHits    688186346                       # read hits (Count)
board.processor.cores.core.mmu.itb.readMisses        10822                       # read misses (Count)
board.processor.cores.core.mmu.itb.readAccesses    688197168                       # read accesses (Count)
board.processor.cores.core.mmu.itb.writeHits            0                       # write hits (Count)
board.processor.cores.core.mmu.itb.writeMisses            0                       # write misses (Count)
board.processor.cores.core.mmu.itb.writeAccesses            0                       # write accesses (Count)
board.processor.cores.core.mmu.itb.hits     688186346                       # Total TLB (read and write) hits (Count)
board.processor.cores.core.mmu.itb.misses        10822                       # Total TLB (read and write) misses (Count)
board.processor.cores.core.mmu.itb.accesses    688197168                       # Total TLB (read and write) accesses (Count)
board.processor.cores.core.mmu.itb.walker.power_state.pwrStateResidencyTicks::UNDEFINED 7436149929750                       # Cumulative time (in ticks) in various power states (Tick)
board.processor.cores.core.power_state.numTransitions           14                       # Number of power state transitions (Count)
board.processor.cores.core.power_state.ticksClkGated::samples            7                       # Distribution of time spent in the clock gated state (Tick)
board.processor.cores.core.power_state.ticksClkGated::mean 3618889571.428571                       # Distribution of time spent in the clock gated state (Tick)
board.processor.cores.core.power_state.ticksClkGated::stdev 983508113.047347                       # Distribution of time spent in the clock gated state (Tick)
board.processor.cores.core.power_state.ticksClkGated::1000-5e+10            7    100.00%    100.00% # Distribution of time spent in the clock gated state (Tick)
board.processor.cores.core.power_state.ticksClkGated::min_value   1388536000                       # Distribution of time spent in the clock gated state (Tick)
board.processor.cores.core.power_state.ticksClkGated::max_value   3994707000                       # Distribution of time spent in the clock gated state (Tick)
board.processor.cores.core.power_state.ticksClkGated::total            7                       # Distribution of time spent in the clock gated state (Tick)
board.processor.cores.core.power_state.pwrStateResidencyTicks::ON 1976903862750                       # Cumulative time (in ticks) in various power states (Tick)
board.processor.cores.core.power_state.pwrStateResidencyTicks::CLK_GATED  25332227000                       # Cumulative time (in ticks) in various power states (Tick)
board.processor.cores.core.rename.squashCycles      8285954                       # Number of cycles rename is squashing (Cycle)
board.processor.cores.core.rename.idleCycles    279177698                       # Number of cycles rename is idle (Cycle)
board.processor.cores.core.rename.blockCycles    176789243                       # Number of cycles rename is blocking (Cycle)
board.processor.cores.core.rename.serializeStallCycles     81619142                       # count of cycles rename stalled for serializing inst (Cycle)
board.processor.cores.core.rename.runCycles    687250058                       # Number of cycles rename is running (Cycle)
board.processor.cores.core.rename.unblockCycles    739971171                       # Number of cycles rename is unblocking (Cycle)
board.processor.cores.core.rename.renamedInsts   6163475199                       # Number of instructions processed by rename (Count)
board.processor.cores.core.rename.ROBFullEvents        10881                       # Number of times rename has blocked due to ROB full (Count)
board.processor.cores.core.rename.IQFullEvents    297854133                       # Number of times rename has blocked due to IQ full (Count)
board.processor.cores.core.rename.LQFullEvents    382813267                       # Number of times rename has blocked due to LQ full (Count)
board.processor.cores.core.rename.SQFullEvents      2746514                       # Number of times rename has blocked due to SQ full (Count)
board.processor.cores.core.rename.renamedOperands   4925168339                       # Number of destination operands rename has renamed (Count)
board.processor.cores.core.rename.lookups   7496050947                       # Number of register rename lookups that rename has made (Count)
board.processor.cores.core.rename.intLookups   7448542152                       # Number of integer rename lookups (Count)
board.processor.cores.core.rename.fpLookups         1498                       # Number of floating rename lookups (Count)
board.processor.cores.core.rename.committedMaps   4816260606                       # Number of HB maps that are committed (Count)
board.processor.cores.core.rename.undoneMaps    108907656                       # Number of HB maps that are undone due to squashing (Count)
board.processor.cores.core.rename.serializing      4405752                       # count of serializing insts renamed (Count)
board.processor.cores.core.rename.tempSerializing      4405874                       # count of temporary serializing insts renamed (Count)
board.processor.cores.core.rename.skidInsts   1710452348                       # count of insts added to the skid buffer (Count)
board.processor.cores.core.rob.reads       7589015203                       # The number of ROB reads (Count)
board.processor.cores.core.rob.writes     12324190526                       # The number of ROB writes (Count)
board.processor.cores.core.thread_0.numInsts   6018745990                       # Number of Instructions committed (Count)
board.processor.cores.core.thread_0.numOps   6023072773                       # Number of Ops committed (Count)
board.processor.cores.core.thread_0.numMemRefs            0                       # Number of Memory References (Count)
board.rng.power_state.pwrStateResidencyTicks::UNDEFINED 7436149929750                       # Cumulative time (in ticks) in various power states (Tick)
board.workload.inst.arm                             0                       # number of arm instructions executed (Count)
board.workload.inst.quiesce                         7                       # number of quiesce instructions executed (Count)

---------- End Simulation Statistics   ----------
