
---------- Begin Simulation Statistics ----------
simSeconds                                          2                       # Number of seconds simulated (Second)
simTicks                                 2000000000000                       # Number of ticks simulated (Tick)
finalTick                                7436149929750                       # Number of ticks from beginning of simulation (restored from checkpoints and never reset) (Tick)
simFreq                                  1000000000000                       # The number of ticks per simulated second ((Tick/Second))
hostSeconds                                  54177.70                       # Real time elapsed on the host (Second)
hostTickRate                                 36915557                       # The number of ticks simulated per host second (ticks/s) ((Tick/Second))
hostMemory                                    8641568                       # Number of bytes of host memory used (Byte)
simInsts                                   5061313432                       # Number of instructions simulated (Count)
simOps                                     5065878278                       # Number of ops (including micro ops) simulated (Count)
hostInstRate                                    93421                       # Simulator instruction rate (inst/s) ((Count/Second))
hostOpRate                                      93505                       # Simulator op (including micro ops) rate (op/s) ((Count/Second))
board.bridge.power_state.pwrStateResidencyTicks::UNDEFINED 7436149929750                       # Cumulative time (in ticks) in various power states (Tick)
board.cache_hierarchy.dptw_caches.demandHits::processor.cores.core.mmu.dtb.walker       509011                       # number of demand (read+write) hits (Count)
board.cache_hierarchy.dptw_caches.demandHits::total       509011                       # number of demand (read+write) hits (Count)
board.cache_hierarchy.dptw_caches.overallHits::processor.cores.core.mmu.dtb.walker       509011                       # number of overall hits (Count)
board.cache_hierarchy.dptw_caches.overallHits::total       509011                       # number of overall hits (Count)
board.cache_hierarchy.dptw_caches.demandMisses::processor.cores.core.mmu.dtb.walker        53412                       # number of demand (read+write) misses (Count)
board.cache_hierarchy.dptw_caches.demandMisses::total        53412                       # number of demand (read+write) misses (Count)
board.cache_hierarchy.dptw_caches.overallMisses::processor.cores.core.mmu.dtb.walker        53412                       # number of overall misses (Count)
board.cache_hierarchy.dptw_caches.overallMisses::total        53412                       # number of overall misses (Count)
board.cache_hierarchy.dptw_caches.demandMissLatency::processor.cores.core.mmu.dtb.walker    833438000                       # number of demand (read+write) miss ticks (Tick)
board.cache_hierarchy.dptw_caches.demandMissLatency::total    833438000                       # number of demand (read+write) miss ticks (Tick)
board.cache_hierarchy.dptw_caches.overallMissLatency::processor.cores.core.mmu.dtb.walker    833438000                       # number of overall miss ticks (Tick)
board.cache_hierarchy.dptw_caches.overallMissLatency::total    833438000                       # number of overall miss ticks (Tick)
board.cache_hierarchy.dptw_caches.demandAccesses::processor.cores.core.mmu.dtb.walker       562423                       # number of demand (read+write) accesses (Count)
board.cache_hierarchy.dptw_caches.demandAccesses::total       562423                       # number of demand (read+write) accesses (Count)
board.cache_hierarchy.dptw_caches.overallAccesses::processor.cores.core.mmu.dtb.walker       562423                       # number of overall (read+write) accesses (Count)
board.cache_hierarchy.dptw_caches.overallAccesses::total       562423                       # number of overall (read+write) accesses (Count)
board.cache_hierarchy.dptw_caches.demandMissRate::processor.cores.core.mmu.dtb.walker     0.094968                       # miss rate for demand accesses (Ratio)
board.cache_hierarchy.dptw_caches.demandMissRate::total     0.094968                       # miss rate for demand accesses (Ratio)
board.cache_hierarchy.dptw_caches.overallMissRate::processor.cores.core.mmu.dtb.walker     0.094968                       # miss rate for overall accesses (Ratio)
board.cache_hierarchy.dptw_caches.overallMissRate::total     0.094968                       # miss rate for overall accesses (Ratio)
board.cache_hierarchy.dptw_caches.demandAvgMissLatency::processor.cores.core.mmu.dtb.walker 15603.946679                       # average overall miss latency in ticks ((Tick/Count))
board.cache_hierarchy.dptw_caches.demandAvgMissLatency::total 15603.946679                       # average overall miss latency in ticks ((Tick/Count))
board.cache_hierarchy.dptw_caches.overallAvgMissLatency::processor.cores.core.mmu.dtb.walker 15603.946679                       # average overall miss latency ((Tick/Count))
board.cache_hierarchy.dptw_caches.overallAvgMissLatency::total 15603.946679                       # average overall miss latency ((Tick/Count))
board.cache_hierarchy.dptw_caches.blockedCycles::no_mshrs            0                       # number of cycles access was blocked (Cycle)
board.cache_hierarchy.dptw_caches.blockedCycles::no_targets            0                       # number of cycles access was blocked (Cycle)
board.cache_hierarchy.dptw_caches.blockedCauses::no_mshrs            0                       # number of times access was blocked (Count)
board.cache_hierarchy.dptw_caches.blockedCauses::no_targets            0                       # number of times access was blocked (Count)
board.cache_hierarchy.dptw_caches.avgBlocked::no_mshrs          nan                       # average number of cycles each access was blocked ((Cycle/Count))
board.cache_hierarchy.dptw_caches.avgBlocked::no_targets          nan                       # average number of cycles each access was blocked ((Cycle/Count))
board.cache_hierarchy.dptw_caches.writebacks::writebacks          414                       # number of writebacks (Count)
board.cache_hierarchy.dptw_caches.writebacks::total          414                       # number of writebacks (Count)
board.cache_hierarchy.dptw_caches.demandMshrMisses::processor.cores.core.mmu.dtb.walker        53412                       # number of demand (read+write) MSHR misses (Count)
board.cache_hierarchy.dptw_caches.demandMshrMisses::total        53412                       # number of demand (read+write) MSHR misses (Count)
board.cache_hierarchy.dptw_caches.overallMshrMisses::processor.cores.core.mmu.dtb.walker        53412                       # number of overall MSHR misses (Count)
board.cache_hierarchy.dptw_caches.overallMshrMisses::total        53412                       # number of overall MSHR misses (Count)
board.cache_hierarchy.dptw_caches.demandMshrMissLatency::processor.cores.core.mmu.dtb.walker    780026000                       # number of demand (read+write) MSHR miss ticks (Tick)
board.cache_hierarchy.dptw_caches.demandMshrMissLatency::total    780026000                       # number of demand (read+write) MSHR miss ticks (Tick)
board.cache_hierarchy.dptw_caches.overallMshrMissLatency::processor.cores.core.mmu.dtb.walker    780026000                       # number of overall MSHR miss ticks (Tick)
board.cache_hierarchy.dptw_caches.overallMshrMissLatency::total    780026000                       # number of overall MSHR miss ticks (Tick)
board.cache_hierarchy.dptw_caches.demandMshrMissRate::processor.cores.core.mmu.dtb.walker     0.094968                       # mshr miss ratio for demand accesses (Ratio)
board.cache_hierarchy.dptw_caches.demandMshrMissRate::total     0.094968                       # mshr miss ratio for demand accesses (Ratio)
board.cache_hierarchy.dptw_caches.overallMshrMissRate::processor.cores.core.mmu.dtb.walker     0.094968                       # mshr miss ratio for overall accesses (Ratio)
board.cache_hierarchy.dptw_caches.overallMshrMissRate::total     0.094968                       # mshr miss ratio for overall accesses (Ratio)
board.cache_hierarchy.dptw_caches.demandAvgMshrMissLatency::processor.cores.core.mmu.dtb.walker 14603.946679                       # average overall mshr miss latency ((Tick/Count))
board.cache_hierarchy.dptw_caches.demandAvgMshrMissLatency::total 14603.946679                       # average overall mshr miss latency ((Tick/Count))
board.cache_hierarchy.dptw_caches.overallAvgMshrMissLatency::processor.cores.core.mmu.dtb.walker 14603.946679                       # average overall mshr miss latency ((Tick/Count))
board.cache_hierarchy.dptw_caches.overallAvgMshrMissLatency::total 14603.946679                       # average overall mshr miss latency ((Tick/Count))
board.cache_hierarchy.dptw_caches.replacements        14068                       # number of replacements (Count)
board.cache_hierarchy.dptw_caches.ReadReq.hits::processor.cores.core.mmu.dtb.walker       508625                       # number of ReadReq hits (Count)
board.cache_hierarchy.dptw_caches.ReadReq.hits::total       508625                       # number of ReadReq hits (Count)
board.cache_hierarchy.dptw_caches.ReadReq.misses::processor.cores.core.mmu.dtb.walker        53257                       # number of ReadReq misses (Count)
board.cache_hierarchy.dptw_caches.ReadReq.misses::total        53257                       # number of ReadReq misses (Count)
board.cache_hierarchy.dptw_caches.ReadReq.missLatency::processor.cores.core.mmu.dtb.walker    832407000                       # number of ReadReq miss ticks (Tick)
board.cache_hierarchy.dptw_caches.ReadReq.missLatency::total    832407000                       # number of ReadReq miss ticks (Tick)
board.cache_hierarchy.dptw_caches.ReadReq.accesses::processor.cores.core.mmu.dtb.walker       561882                       # number of ReadReq accesses(hits+misses) (Count)
board.cache_hierarchy.dptw_caches.ReadReq.accesses::total       561882                       # number of ReadReq accesses(hits+misses) (Count)
board.cache_hierarchy.dptw_caches.ReadReq.missRate::processor.cores.core.mmu.dtb.walker     0.094783                       # miss rate for ReadReq accesses (Ratio)
board.cache_hierarchy.dptw_caches.ReadReq.missRate::total     0.094783                       # miss rate for ReadReq accesses (Ratio)
board.cache_hierarchy.dptw_caches.ReadReq.avgMissLatency::processor.cores.core.mmu.dtb.walker 15630.001690                       # average ReadReq miss latency ((Tick/Count))
board.cache_hierarchy.dptw_caches.ReadReq.avgMissLatency::total 15630.001690                       # average ReadReq miss latency ((Tick/Count))
board.cache_hierarchy.dptw_caches.ReadReq.mshrMisses::processor.cores.core.mmu.dtb.walker        53257                       # number of ReadReq MSHR misses (Count)
board.cache_hierarchy.dptw_caches.ReadReq.mshrMisses::total        53257                       # number of ReadReq MSHR misses (Count)
board.cache_hierarchy.dptw_caches.ReadReq.mshrMissLatency::processor.cores.core.mmu.dtb.walker    779150000                       # number of ReadReq MSHR miss ticks (Tick)
board.cache_hierarchy.dptw_caches.ReadReq.mshrMissLatency::total    779150000                       # number of ReadReq MSHR miss ticks (Tick)
board.cache_hierarchy.dptw_caches.ReadReq.mshrMissRate::processor.cores.core.mmu.dtb.walker     0.094783                       # mshr miss rate for ReadReq accesses (Ratio)
board.cache_hierarchy.dptw_caches.ReadReq.mshrMissRate::total     0.094783                       # mshr miss rate for ReadReq accesses (Ratio)
board.cache_hierarchy.dptw_caches.ReadReq.avgMshrMissLatency::processor.cores.core.mmu.dtb.walker 14630.001690                       # average ReadReq mshr miss latency ((Tick/Count))
board.cache_hierarchy.dptw_caches.ReadReq.avgMshrMissLatency::total 14630.001690                       # average ReadReq mshr miss latency ((Tick/Count))
board.cache_hierarchy.dptw_caches.WriteReq.hits::processor.cores.core.mmu.dtb.walker          386                       # number of WriteReq hits (Count)
board.cache_hierarchy.dptw_caches.WriteReq.hits::total          386                       # number of WriteReq hits (Count)
board.cache_hierarchy.dptw_caches.WriteReq.misses::processor.cores.core.mmu.dtb.walker          155                       # number of WriteReq misses (Count)
board.cache_hierarchy.dptw_caches.WriteReq.misses::total          155                       # number of WriteReq misses (Count)
board.cache_hierarchy.dptw_caches.WriteReq.missLatency::processor.cores.core.mmu.dtb.walker      1031000                       # number of WriteReq miss ticks (Tick)
board.cache_hierarchy.dptw_caches.WriteReq.missLatency::total      1031000                       # number of WriteReq miss ticks (Tick)
board.cache_hierarchy.dptw_caches.WriteReq.accesses::processor.cores.core.mmu.dtb.walker          541                       # number of WriteReq accesses(hits+misses) (Count)
board.cache_hierarchy.dptw_caches.WriteReq.accesses::total          541                       # number of WriteReq accesses(hits+misses) (Count)
board.cache_hierarchy.dptw_caches.WriteReq.missRate::processor.cores.core.mmu.dtb.walker     0.286506                       # miss rate for WriteReq accesses (Ratio)
board.cache_hierarchy.dptw_caches.WriteReq.missRate::total     0.286506                       # miss rate for WriteReq accesses (Ratio)
board.cache_hierarchy.dptw_caches.WriteReq.avgMissLatency::processor.cores.core.mmu.dtb.walker  6651.612903                       # average WriteReq miss latency ((Tick/Count))
board.cache_hierarchy.dptw_caches.WriteReq.avgMissLatency::total  6651.612903                       # average WriteReq miss latency ((Tick/Count))
board.cache_hierarchy.dptw_caches.WriteReq.mshrMisses::processor.cores.core.mmu.dtb.walker          155                       # number of WriteReq MSHR misses (Count)
board.cache_hierarchy.dptw_caches.WriteReq.mshrMisses::total          155                       # number of WriteReq MSHR misses (Count)
board.cache_hierarchy.dptw_caches.WriteReq.mshrMissLatency::processor.cores.core.mmu.dtb.walker       876000                       # number of WriteReq MSHR miss ticks (Tick)
board.cache_hierarchy.dptw_caches.WriteReq.mshrMissLatency::total       876000                       # number of WriteReq MSHR miss ticks (Tick)
board.cache_hierarchy.dptw_caches.WriteReq.mshrMissRate::processor.cores.core.mmu.dtb.walker     0.286506                       # mshr miss rate for WriteReq accesses (Ratio)
board.cache_hierarchy.dptw_caches.WriteReq.mshrMissRate::total     0.286506                       # mshr miss rate for WriteReq accesses (Ratio)
board.cache_hierarchy.dptw_caches.WriteReq.avgMshrMissLatency::processor.cores.core.mmu.dtb.walker  5651.612903                       # average WriteReq mshr miss latency ((Tick/Count))
board.cache_hierarchy.dptw_caches.WriteReq.avgMshrMissLatency::total  5651.612903                       # average WriteReq mshr miss latency ((Tick/Count))
board.cache_hierarchy.dptw_caches.power_state.pwrStateResidencyTicks::UNDEFINED 7436149929750                       # Cumulative time (in ticks) in various power states (Tick)
board.cache_hierarchy.dptw_caches.tags.tagsInUse   121.479230                       # Average ticks per tags in use ((Tick/Count))
board.cache_hierarchy.dptw_caches.tags.totalRefs       562423                       # Total number of references to valid blocks. (Count)
board.cache_hierarchy.dptw_caches.tags.sampledRefs        53257                       # Sample count of references to valid blocks. (Count)
board.cache_hierarchy.dptw_caches.tags.avgRefs    10.560546                       # Average number of references to valid blocks. ((Count/Count))
board.cache_hierarchy.dptw_caches.tags.warmupTick 5436153332000                       # The tick when the warmup percentage was hit. (Tick)
board.cache_hierarchy.dptw_caches.tags.occupancies::processor.cores.core.mmu.dtb.walker   121.479230                       # Average occupied blocks per tick, per requestor ((Count/Tick))
board.cache_hierarchy.dptw_caches.tags.avgOccs::processor.cores.core.mmu.dtb.walker     0.949056                       # Average percentage of cache occupancy ((Ratio/Tick))
board.cache_hierarchy.dptw_caches.tags.avgOccs::total     0.949056                       # Average percentage of cache occupancy ((Ratio/Tick))
board.cache_hierarchy.dptw_caches.tags.occupanciesTaskId::1024          128                       # Occupied blocks per task id (Count)
board.cache_hierarchy.dptw_caches.tags.ageTaskId_1024::1            1                       # Occupied blocks per task id, per block age (Count)
board.cache_hierarchy.dptw_caches.tags.ageTaskId_1024::3           27                       # Occupied blocks per task id, per block age (Count)
board.cache_hierarchy.dptw_caches.tags.ageTaskId_1024::4          100                       # Occupied blocks per task id, per block age (Count)
board.cache_hierarchy.dptw_caches.tags.ratioOccsTaskId::1024            1                       # Ratio of occupied blocks and all blocks, per task id (Ratio)
board.cache_hierarchy.dptw_caches.tags.tagAccesses      2302949                       # Number of tag accesses (Count)
board.cache_hierarchy.dptw_caches.tags.dataAccesses      2302949                       # Number of data accesses (Count)
board.cache_hierarchy.dptw_caches.tags.power_state.pwrStateResidencyTicks::UNDEFINED 7436149929750                       # Cumulative time (in ticks) in various power states (Tick)
board.cache_hierarchy.iocache.blockedCycles::no_mshrs            0                       # number of cycles access was blocked (Cycle)
board.cache_hierarchy.iocache.blockedCycles::no_targets            0                       # number of cycles access was blocked (Cycle)
board.cache_hierarchy.iocache.blockedCauses::no_mshrs            0                       # number of times access was blocked (Count)
board.cache_hierarchy.iocache.blockedCauses::no_targets            0                       # number of times access was blocked (Count)
board.cache_hierarchy.iocache.avgBlocked::no_mshrs          nan                       # average number of cycles each access was blocked ((Cycle/Count))
board.cache_hierarchy.iocache.avgBlocked::no_targets          nan                       # average number of cycles each access was blocked ((Cycle/Count))
board.cache_hierarchy.iocache.replacements            0                       # number of replacements (Count)
board.cache_hierarchy.iocache.power_state.pwrStateResidencyTicks::UNDEFINED 7436149929750                       # Cumulative time (in ticks) in various power states (Tick)
board.cache_hierarchy.iocache.tags.tagsInUse            0                       # Average ticks per tags in use ((Tick/Count))
board.cache_hierarchy.iocache.tags.totalRefs            0                       # Total number of references to valid blocks. (Count)
board.cache_hierarchy.iocache.tags.sampledRefs            0                       # Sample count of references to valid blocks. (Count)
board.cache_hierarchy.iocache.tags.avgRefs          nan                       # Average number of references to valid blocks. ((Count/Count))
board.cache_hierarchy.iocache.tags.warmupTick            0                       # The tick when the warmup percentage was hit. (Tick)
board.cache_hierarchy.iocache.tags.tagAccesses            0                       # Number of tag accesses (Count)
board.cache_hierarchy.iocache.tags.dataAccesses            0                       # Number of data accesses (Count)
board.cache_hierarchy.iocache.tags.power_state.pwrStateResidencyTicks::UNDEFINED 7436149929750                       # Cumulative time (in ticks) in various power states (Tick)
board.cache_hierarchy.iptw_caches.demandHits::processor.cores.core.mmu.itb.walker      1454860                       # number of demand (read+write) hits (Count)
board.cache_hierarchy.iptw_caches.demandHits::total      1454860                       # number of demand (read+write) hits (Count)
board.cache_hierarchy.iptw_caches.overallHits::processor.cores.core.mmu.itb.walker      1454860                       # number of overall hits (Count)
board.cache_hierarchy.iptw_caches.overallHits::total      1454860                       # number of overall hits (Count)
board.cache_hierarchy.iptw_caches.demandMisses::processor.cores.core.mmu.itb.walker         3915                       # number of demand (read+write) misses (Count)
board.cache_hierarchy.iptw_caches.demandMisses::total         3915                       # number of demand (read+write) misses (Count)
board.cache_hierarchy.iptw_caches.overallMisses::processor.cores.core.mmu.itb.walker         3915                       # number of overall misses (Count)
board.cache_hierarchy.iptw_caches.overallMisses::total         3915                       # number of overall misses (Count)
board.cache_hierarchy.iptw_caches.demandMissLatency::processor.cores.core.mmu.itb.walker    226727000                       # number of demand (read+write) miss ticks (Tick)
board.cache_hierarchy.iptw_caches.demandMissLatency::total    226727000                       # number of demand (read+write) miss ticks (Tick)
board.cache_hierarchy.iptw_caches.overallMissLatency::processor.cores.core.mmu.itb.walker    226727000                       # number of overall miss ticks (Tick)
board.cache_hierarchy.iptw_caches.overallMissLatency::total    226727000                       # number of overall miss ticks (Tick)
board.cache_hierarchy.iptw_caches.demandAccesses::processor.cores.core.mmu.itb.walker      1458775                       # number of demand (read+write) accesses (Count)
board.cache_hierarchy.iptw_caches.demandAccesses::total      1458775                       # number of demand (read+write) accesses (Count)
board.cache_hierarchy.iptw_caches.overallAccesses::processor.cores.core.mmu.itb.walker      1458775                       # number of overall (read+write) accesses (Count)
board.cache_hierarchy.iptw_caches.overallAccesses::total      1458775                       # number of overall (read+write) accesses (Count)
board.cache_hierarchy.iptw_caches.demandMissRate::processor.cores.core.mmu.itb.walker     0.002684                       # miss rate for demand accesses (Ratio)
board.cache_hierarchy.iptw_caches.demandMissRate::total     0.002684                       # miss rate for demand accesses (Ratio)
board.cache_hierarchy.iptw_caches.overallMissRate::processor.cores.core.mmu.itb.walker     0.002684                       # miss rate for overall accesses (Ratio)
board.cache_hierarchy.iptw_caches.overallMissRate::total     0.002684                       # miss rate for overall accesses (Ratio)
board.cache_hierarchy.iptw_caches.demandAvgMissLatency::processor.cores.core.mmu.itb.walker 57912.388250                       # average overall miss latency in ticks ((Tick/Count))
board.cache_hierarchy.iptw_caches.demandAvgMissLatency::total 57912.388250                       # average overall miss latency in ticks ((Tick/Count))
board.cache_hierarchy.iptw_caches.overallAvgMissLatency::processor.cores.core.mmu.itb.walker 57912.388250                       # average overall miss latency ((Tick/Count))
board.cache_hierarchy.iptw_caches.overallAvgMissLatency::total 57912.388250                       # average overall miss latency ((Tick/Count))
board.cache_hierarchy.iptw_caches.blockedCycles::no_mshrs            0                       # number of cycles access was blocked (Cycle)
board.cache_hierarchy.iptw_caches.blockedCycles::no_targets            0                       # number of cycles access was blocked (Cycle)
board.cache_hierarchy.iptw_caches.blockedCauses::no_mshrs            0                       # number of times access was blocked (Count)
board.cache_hierarchy.iptw_caches.blockedCauses::no_targets            0                       # number of times access was blocked (Count)
board.cache_hierarchy.iptw_caches.avgBlocked::no_mshrs          nan                       # average number of cycles each access was blocked ((Cycle/Count))
board.cache_hierarchy.iptw_caches.avgBlocked::no_targets          nan                       # average number of cycles each access was blocked ((Cycle/Count))
board.cache_hierarchy.iptw_caches.writebacks::writebacks           32                       # number of writebacks (Count)
board.cache_hierarchy.iptw_caches.writebacks::total           32                       # number of writebacks (Count)
board.cache_hierarchy.iptw_caches.demandMshrMisses::processor.cores.core.mmu.itb.walker         3915                       # number of demand (read+write) MSHR misses (Count)
board.cache_hierarchy.iptw_caches.demandMshrMisses::total         3915                       # number of demand (read+write) MSHR misses (Count)
board.cache_hierarchy.iptw_caches.overallMshrMisses::processor.cores.core.mmu.itb.walker         3915                       # number of overall MSHR misses (Count)
board.cache_hierarchy.iptw_caches.overallMshrMisses::total         3915                       # number of overall MSHR misses (Count)
board.cache_hierarchy.iptw_caches.demandMshrMissLatency::processor.cores.core.mmu.itb.walker    222812000                       # number of demand (read+write) MSHR miss ticks (Tick)
board.cache_hierarchy.iptw_caches.demandMshrMissLatency::total    222812000                       # number of demand (read+write) MSHR miss ticks (Tick)
board.cache_hierarchy.iptw_caches.overallMshrMissLatency::processor.cores.core.mmu.itb.walker    222812000                       # number of overall MSHR miss ticks (Tick)
board.cache_hierarchy.iptw_caches.overallMshrMissLatency::total    222812000                       # number of overall MSHR miss ticks (Tick)
board.cache_hierarchy.iptw_caches.demandMshrMissRate::processor.cores.core.mmu.itb.walker     0.002684                       # mshr miss ratio for demand accesses (Ratio)
board.cache_hierarchy.iptw_caches.demandMshrMissRate::total     0.002684                       # mshr miss ratio for demand accesses (Ratio)
board.cache_hierarchy.iptw_caches.overallMshrMissRate::processor.cores.core.mmu.itb.walker     0.002684                       # mshr miss ratio for overall accesses (Ratio)
board.cache_hierarchy.iptw_caches.overallMshrMissRate::total     0.002684                       # mshr miss ratio for overall accesses (Ratio)
board.cache_hierarchy.iptw_caches.demandAvgMshrMissLatency::processor.cores.core.mmu.itb.walker 56912.388250                       # average overall mshr miss latency ((Tick/Count))
board.cache_hierarchy.iptw_caches.demandAvgMshrMissLatency::total 56912.388250                       # average overall mshr miss latency ((Tick/Count))
board.cache_hierarchy.iptw_caches.overallAvgMshrMissLatency::processor.cores.core.mmu.itb.walker 56912.388250                       # average overall mshr miss latency ((Tick/Count))
board.cache_hierarchy.iptw_caches.overallAvgMshrMissLatency::total 56912.388250                       # average overall mshr miss latency ((Tick/Count))
board.cache_hierarchy.iptw_caches.replacements         2309                       # number of replacements (Count)
board.cache_hierarchy.iptw_caches.ReadReq.hits::processor.cores.core.mmu.itb.walker      1454860                       # number of ReadReq hits (Count)
board.cache_hierarchy.iptw_caches.ReadReq.hits::total      1454860                       # number of ReadReq hits (Count)
board.cache_hierarchy.iptw_caches.ReadReq.misses::processor.cores.core.mmu.itb.walker         3915                       # number of ReadReq misses (Count)
board.cache_hierarchy.iptw_caches.ReadReq.misses::total         3915                       # number of ReadReq misses (Count)
board.cache_hierarchy.iptw_caches.ReadReq.missLatency::processor.cores.core.mmu.itb.walker    226727000                       # number of ReadReq miss ticks (Tick)
board.cache_hierarchy.iptw_caches.ReadReq.missLatency::total    226727000                       # number of ReadReq miss ticks (Tick)
board.cache_hierarchy.iptw_caches.ReadReq.accesses::processor.cores.core.mmu.itb.walker      1458775                       # number of ReadReq accesses(hits+misses) (Count)
board.cache_hierarchy.iptw_caches.ReadReq.accesses::total      1458775                       # number of ReadReq accesses(hits+misses) (Count)
board.cache_hierarchy.iptw_caches.ReadReq.missRate::processor.cores.core.mmu.itb.walker     0.002684                       # miss rate for ReadReq accesses (Ratio)
board.cache_hierarchy.iptw_caches.ReadReq.missRate::total     0.002684                       # miss rate for ReadReq accesses (Ratio)
board.cache_hierarchy.iptw_caches.ReadReq.avgMissLatency::processor.cores.core.mmu.itb.walker 57912.388250                       # average ReadReq miss latency ((Tick/Count))
board.cache_hierarchy.iptw_caches.ReadReq.avgMissLatency::total 57912.388250                       # average ReadReq miss latency ((Tick/Count))
board.cache_hierarchy.iptw_caches.ReadReq.mshrMisses::processor.cores.core.mmu.itb.walker         3915                       # number of ReadReq MSHR misses (Count)
board.cache_hierarchy.iptw_caches.ReadReq.mshrMisses::total         3915                       # number of ReadReq MSHR misses (Count)
board.cache_hierarchy.iptw_caches.ReadReq.mshrMissLatency::processor.cores.core.mmu.itb.walker    222812000                       # number of ReadReq MSHR miss ticks (Tick)
board.cache_hierarchy.iptw_caches.ReadReq.mshrMissLatency::total    222812000                       # number of ReadReq MSHR miss ticks (Tick)
board.cache_hierarchy.iptw_caches.ReadReq.mshrMissRate::processor.cores.core.mmu.itb.walker     0.002684                       # mshr miss rate for ReadReq accesses (Ratio)
board.cache_hierarchy.iptw_caches.ReadReq.mshrMissRate::total     0.002684                       # mshr miss rate for ReadReq accesses (Ratio)
board.cache_hierarchy.iptw_caches.ReadReq.avgMshrMissLatency::processor.cores.core.mmu.itb.walker 56912.388250                       # average ReadReq mshr miss latency ((Tick/Count))
board.cache_hierarchy.iptw_caches.ReadReq.avgMshrMissLatency::total 56912.388250                       # average ReadReq mshr miss latency ((Tick/Count))
board.cache_hierarchy.iptw_caches.power_state.pwrStateResidencyTicks::UNDEFINED 7436149929750                       # Cumulative time (in ticks) in various power states (Tick)
board.cache_hierarchy.iptw_caches.tags.tagsInUse    80.532394                       # Average ticks per tags in use ((Tick/Count))
board.cache_hierarchy.iptw_caches.tags.totalRefs      1458775                       # Total number of references to valid blocks. (Count)
board.cache_hierarchy.iptw_caches.tags.sampledRefs         3915                       # Sample count of references to valid blocks. (Count)
board.cache_hierarchy.iptw_caches.tags.avgRefs   372.611750                       # Average number of references to valid blocks. ((Count/Count))
board.cache_hierarchy.iptw_caches.tags.warmupTick 5436150247000                       # The tick when the warmup percentage was hit. (Tick)
board.cache_hierarchy.iptw_caches.tags.occupancies::processor.cores.core.mmu.itb.walker    80.532394                       # Average occupied blocks per tick, per requestor ((Count/Tick))
board.cache_hierarchy.iptw_caches.tags.avgOccs::processor.cores.core.mmu.itb.walker     0.629159                       # Average percentage of cache occupancy ((Ratio/Tick))
board.cache_hierarchy.iptw_caches.tags.avgOccs::total     0.629159                       # Average percentage of cache occupancy ((Ratio/Tick))
board.cache_hierarchy.iptw_caches.tags.occupanciesTaskId::1024           87                       # Occupied blocks per task id (Count)
board.cache_hierarchy.iptw_caches.tags.ageTaskId_1024::3            7                       # Occupied blocks per task id, per block age (Count)
board.cache_hierarchy.iptw_caches.tags.ageTaskId_1024::4           80                       # Occupied blocks per task id, per block age (Count)
board.cache_hierarchy.iptw_caches.tags.ratioOccsTaskId::1024     0.679688                       # Ratio of occupied blocks and all blocks, per task id (Ratio)
board.cache_hierarchy.iptw_caches.tags.tagAccesses      5839015                       # Number of tag accesses (Count)
board.cache_hierarchy.iptw_caches.tags.dataAccesses      5839015                       # Number of data accesses (Count)
board.cache_hierarchy.iptw_caches.tags.power_state.pwrStateResidencyTicks::UNDEFINED 7436149929750                       # Cumulative time (in ticks) in various power states (Tick)
board.cache_hierarchy.l1dcaches.demandHits::processor.cores.core.data   1456357888                       # number of demand (read+write) hits (Count)
board.cache_hierarchy.l1dcaches.demandHits::total   1456357888                       # number of demand (read+write) hits (Count)
board.cache_hierarchy.l1dcaches.overallHits::processor.cores.core.data   1456357888                       # number of overall hits (Count)
board.cache_hierarchy.l1dcaches.overallHits::total   1456357888                       # number of overall hits (Count)
board.cache_hierarchy.l1dcaches.demandMisses::processor.cores.core.data     12645762                       # number of demand (read+write) misses (Count)
board.cache_hierarchy.l1dcaches.demandMisses::total     12645762                       # number of demand (read+write) misses (Count)
board.cache_hierarchy.l1dcaches.overallMisses::processor.cores.core.data     12645762                       # number of overall misses (Count)
board.cache_hierarchy.l1dcaches.overallMisses::total     12645762                       # number of overall misses (Count)
board.cache_hierarchy.l1dcaches.demandMissLatency::processor.cores.core.data 753584333039                       # number of demand (read+write) miss ticks (Tick)
board.cache_hierarchy.l1dcaches.demandMissLatency::total 753584333039                       # number of demand (read+write) miss ticks (Tick)
board.cache_hierarchy.l1dcaches.overallMissLatency::processor.cores.core.data 753584333039                       # number of overall miss ticks (Tick)
board.cache_hierarchy.l1dcaches.overallMissLatency::total 753584333039                       # number of overall miss ticks (Tick)
board.cache_hierarchy.l1dcaches.demandAccesses::processor.cores.core.data   1469003650                       # number of demand (read+write) accesses (Count)
board.cache_hierarchy.l1dcaches.demandAccesses::total   1469003650                       # number of demand (read+write) accesses (Count)
board.cache_hierarchy.l1dcaches.overallAccesses::processor.cores.core.data   1469003650                       # number of overall (read+write) accesses (Count)
board.cache_hierarchy.l1dcaches.overallAccesses::total   1469003650                       # number of overall (read+write) accesses (Count)
board.cache_hierarchy.l1dcaches.demandMissRate::processor.cores.core.data     0.008608                       # miss rate for demand accesses (Ratio)
board.cache_hierarchy.l1dcaches.demandMissRate::total     0.008608                       # miss rate for demand accesses (Ratio)
board.cache_hierarchy.l1dcaches.overallMissRate::processor.cores.core.data     0.008608                       # miss rate for overall accesses (Ratio)
board.cache_hierarchy.l1dcaches.overallMissRate::total     0.008608                       # miss rate for overall accesses (Ratio)
board.cache_hierarchy.l1dcaches.demandAvgMissLatency::processor.cores.core.data 59591.848482                       # average overall miss latency in ticks ((Tick/Count))
board.cache_hierarchy.l1dcaches.demandAvgMissLatency::total 59591.848482                       # average overall miss latency in ticks ((Tick/Count))
board.cache_hierarchy.l1dcaches.overallAvgMissLatency::processor.cores.core.data 59591.848482                       # average overall miss latency ((Tick/Count))
board.cache_hierarchy.l1dcaches.overallAvgMissLatency::total 59591.848482                       # average overall miss latency ((Tick/Count))
board.cache_hierarchy.l1dcaches.blockedCycles::no_mshrs        25179                       # number of cycles access was blocked (Cycle)
board.cache_hierarchy.l1dcaches.blockedCycles::no_targets         9996                       # number of cycles access was blocked (Cycle)
board.cache_hierarchy.l1dcaches.blockedCauses::no_mshrs         5626                       # number of times access was blocked (Count)
board.cache_hierarchy.l1dcaches.blockedCauses::no_targets          272                       # number of times access was blocked (Count)
board.cache_hierarchy.l1dcaches.avgBlocked::no_mshrs     4.475471                       # average number of cycles each access was blocked ((Cycle/Count))
board.cache_hierarchy.l1dcaches.avgBlocked::no_targets    36.750000                       # average number of cycles each access was blocked ((Cycle/Count))
board.cache_hierarchy.l1dcaches.writebacks::writebacks      3394497                       # number of writebacks (Count)
board.cache_hierarchy.l1dcaches.writebacks::total      3394497                       # number of writebacks (Count)
board.cache_hierarchy.l1dcaches.demandMshrHits::processor.cores.core.data      8401559                       # number of demand (read+write) MSHR hits (Count)
board.cache_hierarchy.l1dcaches.demandMshrHits::total      8401559                       # number of demand (read+write) MSHR hits (Count)
board.cache_hierarchy.l1dcaches.overallMshrHits::processor.cores.core.data      8401559                       # number of overall MSHR hits (Count)
board.cache_hierarchy.l1dcaches.overallMshrHits::total      8401559                       # number of overall MSHR hits (Count)
board.cache_hierarchy.l1dcaches.demandMshrMisses::processor.cores.core.data      4244203                       # number of demand (read+write) MSHR misses (Count)
board.cache_hierarchy.l1dcaches.demandMshrMisses::total      4244203                       # number of demand (read+write) MSHR misses (Count)
board.cache_hierarchy.l1dcaches.overallMshrMisses::cache_hierarchy.l1dcaches.prefetcher      1847273                       # number of overall MSHR misses (Count)
board.cache_hierarchy.l1dcaches.overallMshrMisses::processor.cores.core.data      4244203                       # number of overall MSHR misses (Count)
board.cache_hierarchy.l1dcaches.overallMshrMisses::total      6091476                       # number of overall MSHR misses (Count)
board.cache_hierarchy.l1dcaches.overallMshrUncacheable::processor.cores.core.data         5688                       # number of overall MSHR uncacheable misses (Count)
board.cache_hierarchy.l1dcaches.overallMshrUncacheable::total         5688                       # number of overall MSHR uncacheable misses (Count)
board.cache_hierarchy.l1dcaches.demandMshrMissLatency::processor.cores.core.data 134975931945                       # number of demand (read+write) MSHR miss ticks (Tick)
board.cache_hierarchy.l1dcaches.demandMshrMissLatency::total 134975931945                       # number of demand (read+write) MSHR miss ticks (Tick)
board.cache_hierarchy.l1dcaches.overallMshrMissLatency::cache_hierarchy.l1dcaches.prefetcher 177768644291                       # number of overall MSHR miss ticks (Tick)
board.cache_hierarchy.l1dcaches.overallMshrMissLatency::processor.cores.core.data 134975931945                       # number of overall MSHR miss ticks (Tick)
board.cache_hierarchy.l1dcaches.overallMshrMissLatency::total 312744576236                       # number of overall MSHR miss ticks (Tick)
board.cache_hierarchy.l1dcaches.overallMshrUncacheableLatency::processor.cores.core.data    448778000                       # number of overall MSHR uncacheable ticks (Tick)
board.cache_hierarchy.l1dcaches.overallMshrUncacheableLatency::total    448778000                       # number of overall MSHR uncacheable ticks (Tick)
board.cache_hierarchy.l1dcaches.demandMshrMissRate::processor.cores.core.data     0.002889                       # mshr miss ratio for demand accesses (Ratio)
board.cache_hierarchy.l1dcaches.demandMshrMissRate::total     0.002889                       # mshr miss ratio for demand accesses (Ratio)
board.cache_hierarchy.l1dcaches.overallMshrMissRate::cache_hierarchy.l1dcaches.prefetcher          inf                       # mshr miss ratio for overall accesses (Ratio)
board.cache_hierarchy.l1dcaches.overallMshrMissRate::processor.cores.core.data     0.002889                       # mshr miss ratio for overall accesses (Ratio)
board.cache_hierarchy.l1dcaches.overallMshrMissRate::total     0.004147                       # mshr miss ratio for overall accesses (Ratio)
board.cache_hierarchy.l1dcaches.demandAvgMshrMissLatency::processor.cores.core.data 31802.421313                       # average overall mshr miss latency ((Tick/Count))
board.cache_hierarchy.l1dcaches.demandAvgMshrMissLatency::total 31802.421313                       # average overall mshr miss latency ((Tick/Count))
board.cache_hierarchy.l1dcaches.overallAvgMshrMissLatency::cache_hierarchy.l1dcaches.prefetcher 96233.011737                       # average overall mshr miss latency ((Tick/Count))
board.cache_hierarchy.l1dcaches.overallAvgMshrMissLatency::processor.cores.core.data 31802.421313                       # average overall mshr miss latency ((Tick/Count))
board.cache_hierarchy.l1dcaches.overallAvgMshrMissLatency::total 51341.345880                       # average overall mshr miss latency ((Tick/Count))
board.cache_hierarchy.l1dcaches.overallAvgMshrUncacheableLatency::processor.cores.core.data 78899.085795                       # average overall mshr uncacheable latency ((Tick/Count))
board.cache_hierarchy.l1dcaches.overallAvgMshrUncacheableLatency::total 78899.085795                       # average overall mshr uncacheable latency ((Tick/Count))
board.cache_hierarchy.l1dcaches.replacements      6085886                       # number of replacements (Count)
board.cache_hierarchy.l1dcaches.HardPFReq.mshrMisses::cache_hierarchy.l1dcaches.prefetcher      1847273                       # number of HardPFReq MSHR misses (Count)
board.cache_hierarchy.l1dcaches.HardPFReq.mshrMisses::total      1847273                       # number of HardPFReq MSHR misses (Count)
board.cache_hierarchy.l1dcaches.HardPFReq.mshrMissLatency::cache_hierarchy.l1dcaches.prefetcher 177768644291                       # number of HardPFReq MSHR miss ticks (Tick)
board.cache_hierarchy.l1dcaches.HardPFReq.mshrMissLatency::total 177768644291                       # number of HardPFReq MSHR miss ticks (Tick)
board.cache_hierarchy.l1dcaches.HardPFReq.mshrMissRate::cache_hierarchy.l1dcaches.prefetcher          inf                       # mshr miss rate for HardPFReq accesses (Ratio)
board.cache_hierarchy.l1dcaches.HardPFReq.mshrMissRate::total          inf                       # mshr miss rate for HardPFReq accesses (Ratio)
board.cache_hierarchy.l1dcaches.HardPFReq.avgMshrMissLatency::cache_hierarchy.l1dcaches.prefetcher 96233.011737                       # average HardPFReq mshr miss latency ((Tick/Count))
board.cache_hierarchy.l1dcaches.HardPFReq.avgMshrMissLatency::total 96233.011737                       # average HardPFReq mshr miss latency ((Tick/Count))
board.cache_hierarchy.l1dcaches.LoadLockedReq.hits::processor.cores.core.data      4214547                       # number of LoadLockedReq hits (Count)
board.cache_hierarchy.l1dcaches.LoadLockedReq.hits::total      4214547                       # number of LoadLockedReq hits (Count)
board.cache_hierarchy.l1dcaches.LoadLockedReq.misses::processor.cores.core.data         9526                       # number of LoadLockedReq misses (Count)
board.cache_hierarchy.l1dcaches.LoadLockedReq.misses::total         9526                       # number of LoadLockedReq misses (Count)
board.cache_hierarchy.l1dcaches.LoadLockedReq.missLatency::processor.cores.core.data    366600000                       # number of LoadLockedReq miss ticks (Tick)
board.cache_hierarchy.l1dcaches.LoadLockedReq.missLatency::total    366600000                       # number of LoadLockedReq miss ticks (Tick)
board.cache_hierarchy.l1dcaches.LoadLockedReq.accesses::processor.cores.core.data      4224073                       # number of LoadLockedReq accesses(hits+misses) (Count)
board.cache_hierarchy.l1dcaches.LoadLockedReq.accesses::total      4224073                       # number of LoadLockedReq accesses(hits+misses) (Count)
board.cache_hierarchy.l1dcaches.LoadLockedReq.missRate::processor.cores.core.data     0.002255                       # miss rate for LoadLockedReq accesses (Ratio)
board.cache_hierarchy.l1dcaches.LoadLockedReq.missRate::total     0.002255                       # miss rate for LoadLockedReq accesses (Ratio)
board.cache_hierarchy.l1dcaches.LoadLockedReq.avgMissLatency::processor.cores.core.data 38484.148646                       # average LoadLockedReq miss latency ((Tick/Count))
board.cache_hierarchy.l1dcaches.LoadLockedReq.avgMissLatency::total 38484.148646                       # average LoadLockedReq miss latency ((Tick/Count))
board.cache_hierarchy.l1dcaches.LoadLockedReq.mshrHits::processor.cores.core.data         2213                       # number of LoadLockedReq MSHR hits (Count)
board.cache_hierarchy.l1dcaches.LoadLockedReq.mshrHits::total         2213                       # number of LoadLockedReq MSHR hits (Count)
board.cache_hierarchy.l1dcaches.LoadLockedReq.mshrMisses::processor.cores.core.data         7313                       # number of LoadLockedReq MSHR misses (Count)
board.cache_hierarchy.l1dcaches.LoadLockedReq.mshrMisses::total         7313                       # number of LoadLockedReq MSHR misses (Count)
board.cache_hierarchy.l1dcaches.LoadLockedReq.mshrMissLatency::processor.cores.core.data    277628000                       # number of LoadLockedReq MSHR miss ticks (Tick)
board.cache_hierarchy.l1dcaches.LoadLockedReq.mshrMissLatency::total    277628000                       # number of LoadLockedReq MSHR miss ticks (Tick)
board.cache_hierarchy.l1dcaches.LoadLockedReq.mshrMissRate::processor.cores.core.data     0.001731                       # mshr miss rate for LoadLockedReq accesses (Ratio)
board.cache_hierarchy.l1dcaches.LoadLockedReq.mshrMissRate::total     0.001731                       # mshr miss rate for LoadLockedReq accesses (Ratio)
board.cache_hierarchy.l1dcaches.LoadLockedReq.avgMshrMissLatency::processor.cores.core.data 37963.626419                       # average LoadLockedReq mshr miss latency ((Tick/Count))
board.cache_hierarchy.l1dcaches.LoadLockedReq.avgMshrMissLatency::total 37963.626419                       # average LoadLockedReq mshr miss latency ((Tick/Count))
board.cache_hierarchy.l1dcaches.ReadReq.hits::processor.cores.core.data    765812858                       # number of ReadReq hits (Count)
board.cache_hierarchy.l1dcaches.ReadReq.hits::total    765812858                       # number of ReadReq hits (Count)
board.cache_hierarchy.l1dcaches.ReadReq.misses::processor.cores.core.data      4153956                       # number of ReadReq misses (Count)
board.cache_hierarchy.l1dcaches.ReadReq.misses::total      4153956                       # number of ReadReq misses (Count)
board.cache_hierarchy.l1dcaches.ReadReq.missLatency::processor.cores.core.data 103574537000                       # number of ReadReq miss ticks (Tick)
board.cache_hierarchy.l1dcaches.ReadReq.missLatency::total 103574537000                       # number of ReadReq miss ticks (Tick)
board.cache_hierarchy.l1dcaches.ReadReq.accesses::processor.cores.core.data    769966814                       # number of ReadReq accesses(hits+misses) (Count)
board.cache_hierarchy.l1dcaches.ReadReq.accesses::total    769966814                       # number of ReadReq accesses(hits+misses) (Count)
board.cache_hierarchy.l1dcaches.ReadReq.missRate::processor.cores.core.data     0.005395                       # miss rate for ReadReq accesses (Ratio)
board.cache_hierarchy.l1dcaches.ReadReq.missRate::total     0.005395                       # miss rate for ReadReq accesses (Ratio)
board.cache_hierarchy.l1dcaches.ReadReq.avgMissLatency::processor.cores.core.data 24933.951395                       # average ReadReq miss latency ((Tick/Count))
board.cache_hierarchy.l1dcaches.ReadReq.avgMissLatency::total 24933.951395                       # average ReadReq miss latency ((Tick/Count))
board.cache_hierarchy.l1dcaches.ReadReq.mshrHits::processor.cores.core.data       960960                       # number of ReadReq MSHR hits (Count)
board.cache_hierarchy.l1dcaches.ReadReq.mshrHits::total       960960                       # number of ReadReq MSHR hits (Count)
board.cache_hierarchy.l1dcaches.ReadReq.mshrMisses::processor.cores.core.data      3192996                       # number of ReadReq MSHR misses (Count)
board.cache_hierarchy.l1dcaches.ReadReq.mshrMisses::total      3192996                       # number of ReadReq MSHR misses (Count)
board.cache_hierarchy.l1dcaches.ReadReq.mshrUncacheable::processor.cores.core.data         3424                       # number of ReadReq MSHR uncacheable (Count)
board.cache_hierarchy.l1dcaches.ReadReq.mshrUncacheable::total         3424                       # number of ReadReq MSHR uncacheable (Count)
board.cache_hierarchy.l1dcaches.ReadReq.mshrMissLatency::processor.cores.core.data  56230791000                       # number of ReadReq MSHR miss ticks (Tick)
board.cache_hierarchy.l1dcaches.ReadReq.mshrMissLatency::total  56230791000                       # number of ReadReq MSHR miss ticks (Tick)
board.cache_hierarchy.l1dcaches.ReadReq.mshrUncacheableLatency::processor.cores.core.data    448778000                       # number of ReadReq MSHR uncacheable ticks (Tick)
board.cache_hierarchy.l1dcaches.ReadReq.mshrUncacheableLatency::total    448778000                       # number of ReadReq MSHR uncacheable ticks (Tick)
board.cache_hierarchy.l1dcaches.ReadReq.mshrMissRate::processor.cores.core.data     0.004147                       # mshr miss rate for ReadReq accesses (Ratio)
board.cache_hierarchy.l1dcaches.ReadReq.mshrMissRate::total     0.004147                       # mshr miss rate for ReadReq accesses (Ratio)
board.cache_hierarchy.l1dcaches.ReadReq.avgMshrMissLatency::processor.cores.core.data 17610.667536                       # average ReadReq mshr miss latency ((Tick/Count))
board.cache_hierarchy.l1dcaches.ReadReq.avgMshrMissLatency::total 17610.667536                       # average ReadReq mshr miss latency ((Tick/Count))
board.cache_hierarchy.l1dcaches.ReadReq.avgMshrUncacheableLatency::processor.cores.core.data 131068.341121                       # average ReadReq mshr uncacheable latency ((Tick/Count))
board.cache_hierarchy.l1dcaches.ReadReq.avgMshrUncacheableLatency::total 131068.341121                       # average ReadReq mshr uncacheable latency ((Tick/Count))
board.cache_hierarchy.l1dcaches.StoreCondReq.hits::processor.cores.core.data      2125514                       # number of StoreCondReq hits (Count)
board.cache_hierarchy.l1dcaches.StoreCondReq.hits::total      2125514                       # number of StoreCondReq hits (Count)
board.cache_hierarchy.l1dcaches.StoreCondReq.accesses::processor.cores.core.data      2125514                       # number of StoreCondReq accesses(hits+misses) (Count)
board.cache_hierarchy.l1dcaches.StoreCondReq.accesses::total      2125514                       # number of StoreCondReq accesses(hits+misses) (Count)
board.cache_hierarchy.l1dcaches.SwapReq.hits::processor.cores.core.data      2513456                       # number of SwapReq hits (Count)
board.cache_hierarchy.l1dcaches.SwapReq.hits::total      2513456                       # number of SwapReq hits (Count)
board.cache_hierarchy.l1dcaches.SwapReq.misses::processor.cores.core.data        28195                       # number of SwapReq misses (Count)
board.cache_hierarchy.l1dcaches.SwapReq.misses::total        28195                       # number of SwapReq misses (Count)
board.cache_hierarchy.l1dcaches.SwapReq.missLatency::processor.cores.core.data    530977000                       # number of SwapReq miss ticks (Tick)
board.cache_hierarchy.l1dcaches.SwapReq.missLatency::total    530977000                       # number of SwapReq miss ticks (Tick)
board.cache_hierarchy.l1dcaches.SwapReq.accesses::processor.cores.core.data      2541651                       # number of SwapReq accesses(hits+misses) (Count)
board.cache_hierarchy.l1dcaches.SwapReq.accesses::total      2541651                       # number of SwapReq accesses(hits+misses) (Count)
board.cache_hierarchy.l1dcaches.SwapReq.missRate::processor.cores.core.data     0.011093                       # miss rate for SwapReq accesses (Ratio)
board.cache_hierarchy.l1dcaches.SwapReq.missRate::total     0.011093                       # miss rate for SwapReq accesses (Ratio)
board.cache_hierarchy.l1dcaches.SwapReq.avgMissLatency::processor.cores.core.data 18832.310693                       # average SwapReq miss latency ((Tick/Count))
board.cache_hierarchy.l1dcaches.SwapReq.avgMissLatency::total 18832.310693                       # average SwapReq miss latency ((Tick/Count))
board.cache_hierarchy.l1dcaches.SwapReq.mshrHits::processor.cores.core.data           35                       # number of SwapReq MSHR hits (Count)
board.cache_hierarchy.l1dcaches.SwapReq.mshrHits::total           35                       # number of SwapReq MSHR hits (Count)
board.cache_hierarchy.l1dcaches.SwapReq.mshrMisses::processor.cores.core.data        28160                       # number of SwapReq MSHR misses (Count)
board.cache_hierarchy.l1dcaches.SwapReq.mshrMisses::total        28160                       # number of SwapReq MSHR misses (Count)
board.cache_hierarchy.l1dcaches.SwapReq.mshrUncacheable::processor.cores.core.data          929                       # number of SwapReq MSHR uncacheable (Count)
board.cache_hierarchy.l1dcaches.SwapReq.mshrUncacheable::total          929                       # number of SwapReq MSHR uncacheable (Count)
board.cache_hierarchy.l1dcaches.SwapReq.mshrMissLatency::processor.cores.core.data    501863000                       # number of SwapReq MSHR miss ticks (Tick)
board.cache_hierarchy.l1dcaches.SwapReq.mshrMissLatency::total    501863000                       # number of SwapReq MSHR miss ticks (Tick)
board.cache_hierarchy.l1dcaches.SwapReq.mshrMissRate::processor.cores.core.data     0.011079                       # mshr miss rate for SwapReq accesses (Ratio)
board.cache_hierarchy.l1dcaches.SwapReq.mshrMissRate::total     0.011079                       # mshr miss rate for SwapReq accesses (Ratio)
board.cache_hierarchy.l1dcaches.SwapReq.avgMshrMissLatency::processor.cores.core.data 17821.839489                       # average SwapReq mshr miss latency ((Tick/Count))
board.cache_hierarchy.l1dcaches.SwapReq.avgMshrMissLatency::total 17821.839489                       # average SwapReq mshr miss latency ((Tick/Count))
board.cache_hierarchy.l1dcaches.WriteReq.hits::processor.cores.core.data    690545030                       # number of WriteReq hits (Count)
board.cache_hierarchy.l1dcaches.WriteReq.hits::total    690545030                       # number of WriteReq hits (Count)
board.cache_hierarchy.l1dcaches.WriteReq.misses::processor.cores.core.data      8491806                       # number of WriteReq misses (Count)
board.cache_hierarchy.l1dcaches.WriteReq.misses::total      8491806                       # number of WriteReq misses (Count)
board.cache_hierarchy.l1dcaches.WriteReq.missLatency::processor.cores.core.data 650009796039                       # number of WriteReq miss ticks (Tick)
board.cache_hierarchy.l1dcaches.WriteReq.missLatency::total 650009796039                       # number of WriteReq miss ticks (Tick)
board.cache_hierarchy.l1dcaches.WriteReq.accesses::processor.cores.core.data    699036836                       # number of WriteReq accesses(hits+misses) (Count)
board.cache_hierarchy.l1dcaches.WriteReq.accesses::total    699036836                       # number of WriteReq accesses(hits+misses) (Count)
board.cache_hierarchy.l1dcaches.WriteReq.missRate::processor.cores.core.data     0.012148                       # miss rate for WriteReq accesses (Ratio)
board.cache_hierarchy.l1dcaches.WriteReq.missRate::total     0.012148                       # miss rate for WriteReq accesses (Ratio)
board.cache_hierarchy.l1dcaches.WriteReq.avgMissLatency::processor.cores.core.data 76545.530602                       # average WriteReq miss latency ((Tick/Count))
board.cache_hierarchy.l1dcaches.WriteReq.avgMissLatency::total 76545.530602                       # average WriteReq miss latency ((Tick/Count))
board.cache_hierarchy.l1dcaches.WriteReq.mshrHits::processor.cores.core.data      7440599                       # number of WriteReq MSHR hits (Count)
board.cache_hierarchy.l1dcaches.WriteReq.mshrHits::total      7440599                       # number of WriteReq MSHR hits (Count)
board.cache_hierarchy.l1dcaches.WriteReq.mshrMisses::processor.cores.core.data      1051207                       # number of WriteReq MSHR misses (Count)
board.cache_hierarchy.l1dcaches.WriteReq.mshrMisses::total      1051207                       # number of WriteReq MSHR misses (Count)
board.cache_hierarchy.l1dcaches.WriteReq.mshrUncacheable::processor.cores.core.data         2264                       # number of WriteReq MSHR uncacheable (Count)
board.cache_hierarchy.l1dcaches.WriteReq.mshrUncacheable::total         2264                       # number of WriteReq MSHR uncacheable (Count)
board.cache_hierarchy.l1dcaches.WriteReq.mshrMissLatency::processor.cores.core.data  78745140945                       # number of WriteReq MSHR miss ticks (Tick)
board.cache_hierarchy.l1dcaches.WriteReq.mshrMissLatency::total  78745140945                       # number of WriteReq MSHR miss ticks (Tick)
board.cache_hierarchy.l1dcaches.WriteReq.mshrMissRate::processor.cores.core.data     0.001504                       # mshr miss rate for WriteReq accesses (Ratio)
board.cache_hierarchy.l1dcaches.WriteReq.mshrMissRate::total     0.001504                       # mshr miss rate for WriteReq accesses (Ratio)
board.cache_hierarchy.l1dcaches.WriteReq.avgMshrMissLatency::processor.cores.core.data 74909.262348                       # average WriteReq mshr miss latency ((Tick/Count))
board.cache_hierarchy.l1dcaches.WriteReq.avgMshrMissLatency::total 74909.262348                       # average WriteReq mshr miss latency ((Tick/Count))
board.cache_hierarchy.l1dcaches.power_state.pwrStateResidencyTicks::UNDEFINED 7436149929750                       # Cumulative time (in ticks) in various power states (Tick)
board.cache_hierarchy.l1dcaches.prefetcher.demandMshrMisses      4244203                       # demands not covered by prefetchs (Count)
board.cache_hierarchy.l1dcaches.prefetcher.pfIssued      3301133                       # number of hwpf issued (Count)
board.cache_hierarchy.l1dcaches.prefetcher.pfUnused        67165                       # number of HardPF blocks evicted w/o reference (Count)
board.cache_hierarchy.l1dcaches.prefetcher.pfUseful      1665354                       # number of useful prefetch (Count)
board.cache_hierarchy.l1dcaches.prefetcher.pfUsefulButMiss          860                       # number of hit on prefetch but cache block is not in an usable state (Count)
board.cache_hierarchy.l1dcaches.prefetcher.accuracy     0.504480                       # accuracy of the prefetcher (Count)
board.cache_hierarchy.l1dcaches.prefetcher.coverage     0.281807                       # coverage brought by this prefetcher (Count)
board.cache_hierarchy.l1dcaches.prefetcher.pfHitInCache       622973                       # number of prefetches hitting in cache (Count)
board.cache_hierarchy.l1dcaches.prefetcher.pfHitInMSHR       830886                       # number of prefetches hitting in a MSHR (Count)
board.cache_hierarchy.l1dcaches.prefetcher.pfHitInWB            1                       # number of prefetches hit in the Write Buffer (Count)
board.cache_hierarchy.l1dcaches.prefetcher.pfLate      1453860                       # number of late prefetches (hitting in cache, MSHR or WB) (Count)
board.cache_hierarchy.l1dcaches.prefetcher.pfIdentified      7438780                       # number of prefetch candidates identified (Count)
board.cache_hierarchy.l1dcaches.prefetcher.pfBufferHit      2977934                       # number of redundant prefetches already in prefetch queue (Count)
board.cache_hierarchy.l1dcaches.prefetcher.pfInCache            0                       # number of redundant prefetches already in cache/mshr dropped (Count)
board.cache_hierarchy.l1dcaches.prefetcher.pfRemovedDemand         6031                       # number of prefetches dropped due to a demand for the same address (Count)
board.cache_hierarchy.l1dcaches.prefetcher.pfRemovedFull            0                       # number of prefetches dropped due to prefetch queue size (Count)
board.cache_hierarchy.l1dcaches.prefetcher.pfSpanPage      2875928                       # number of prefetches that crossed the page (Count)
board.cache_hierarchy.l1dcaches.prefetcher.pfUsefulSpanPage          462                       # number of prefetches that is useful and crossed the page (Count)
board.cache_hierarchy.l1dcaches.prefetcher.power_state.pwrStateResidencyTicks::UNDEFINED 7436149929750                       # Cumulative time (in ticks) in various power states (Tick)
board.cache_hierarchy.l1dcaches.tags.tagsInUse   511.990523                       # Average ticks per tags in use ((Tick/Count))
board.cache_hierarchy.l1dcaches.tags.totalRefs   1471338744                       # Total number of references to valid blocks. (Count)
board.cache_hierarchy.l1dcaches.tags.sampledRefs      6086534                       # Sample count of references to valid blocks. (Count)
board.cache_hierarchy.l1dcaches.tags.avgRefs   241.736716                       # Average number of references to valid blocks. ((Count/Count))
board.cache_hierarchy.l1dcaches.tags.warmupTick 5436150177000                       # The tick when the warmup percentage was hit. (Tick)
board.cache_hierarchy.l1dcaches.tags.occupancies::cache_hierarchy.l1dcaches.prefetcher   189.299460                       # Average occupied blocks per tick, per requestor ((Count/Tick))
board.cache_hierarchy.l1dcaches.tags.occupancies::processor.cores.core.data   322.691063                       # Average occupied blocks per tick, per requestor ((Count/Tick))
board.cache_hierarchy.l1dcaches.tags.avgOccs::cache_hierarchy.l1dcaches.prefetcher     0.369726                       # Average percentage of cache occupancy ((Ratio/Tick))
board.cache_hierarchy.l1dcaches.tags.avgOccs::processor.cores.core.data     0.630256                       # Average percentage of cache occupancy ((Ratio/Tick))
board.cache_hierarchy.l1dcaches.tags.avgOccs::total     0.999981                       # Average percentage of cache occupancy ((Ratio/Tick))
board.cache_hierarchy.l1dcaches.tags.occupanciesTaskId::1022          219                       # Occupied blocks per task id (Count)
board.cache_hierarchy.l1dcaches.tags.occupanciesTaskId::1024          293                       # Occupied blocks per task id (Count)
board.cache_hierarchy.l1dcaches.tags.ageTaskId_1022::1           24                       # Occupied blocks per task id, per block age (Count)
board.cache_hierarchy.l1dcaches.tags.ageTaskId_1022::2          194                       # Occupied blocks per task id, per block age (Count)
board.cache_hierarchy.l1dcaches.tags.ageTaskId_1022::3            1                       # Occupied blocks per task id, per block age (Count)
board.cache_hierarchy.l1dcaches.tags.ageTaskId_1024::0            1                       # Occupied blocks per task id, per block age (Count)
board.cache_hierarchy.l1dcaches.tags.ageTaskId_1024::1           23                       # Occupied blocks per task id, per block age (Count)
board.cache_hierarchy.l1dcaches.tags.ageTaskId_1024::2          136                       # Occupied blocks per task id, per block age (Count)
board.cache_hierarchy.l1dcaches.tags.ageTaskId_1024::3          129                       # Occupied blocks per task id, per block age (Count)
board.cache_hierarchy.l1dcaches.tags.ageTaskId_1024::4            4                       # Occupied blocks per task id, per block age (Count)
board.cache_hierarchy.l1dcaches.tags.ratioOccsTaskId::1022     0.427734                       # Ratio of occupied blocks and all blocks, per task id (Ratio)
board.cache_hierarchy.l1dcaches.tags.ratioOccsTaskId::1024     0.572266                       # Ratio of occupied blocks and all blocks, per task id (Ratio)
board.cache_hierarchy.l1dcaches.tags.tagAccesses  11829245638                       # Number of tag accesses (Count)
board.cache_hierarchy.l1dcaches.tags.dataAccesses  11829245638                       # Number of data accesses (Count)
board.cache_hierarchy.l1dcaches.tags.power_state.pwrStateResidencyTicks::UNDEFINED 7436149929750                       # Cumulative time (in ticks) in various power states (Tick)
board.cache_hierarchy.l1icaches.demandHits::processor.cores.core.inst    551128002                       # number of demand (read+write) hits (Count)
board.cache_hierarchy.l1icaches.demandHits::total    551128002                       # number of demand (read+write) hits (Count)
board.cache_hierarchy.l1icaches.overallHits::processor.cores.core.inst    551128002                       # number of overall hits (Count)
board.cache_hierarchy.l1icaches.overallHits::total    551128002                       # number of overall hits (Count)
board.cache_hierarchy.l1icaches.demandMisses::processor.cores.core.inst       440205                       # number of demand (read+write) misses (Count)
board.cache_hierarchy.l1icaches.demandMisses::total       440205                       # number of demand (read+write) misses (Count)
board.cache_hierarchy.l1icaches.overallMisses::processor.cores.core.inst       440205                       # number of overall misses (Count)
board.cache_hierarchy.l1icaches.overallMisses::total       440205                       # number of overall misses (Count)
board.cache_hierarchy.l1icaches.demandMissLatency::processor.cores.core.inst  16702810000                       # number of demand (read+write) miss ticks (Tick)
board.cache_hierarchy.l1icaches.demandMissLatency::total  16702810000                       # number of demand (read+write) miss ticks (Tick)
board.cache_hierarchy.l1icaches.overallMissLatency::processor.cores.core.inst  16702810000                       # number of overall miss ticks (Tick)
board.cache_hierarchy.l1icaches.overallMissLatency::total  16702810000                       # number of overall miss ticks (Tick)
board.cache_hierarchy.l1icaches.demandAccesses::processor.cores.core.inst    551568207                       # number of demand (read+write) accesses (Count)
board.cache_hierarchy.l1icaches.demandAccesses::total    551568207                       # number of demand (read+write) accesses (Count)
board.cache_hierarchy.l1icaches.overallAccesses::processor.cores.core.inst    551568207                       # number of overall (read+write) accesses (Count)
board.cache_hierarchy.l1icaches.overallAccesses::total    551568207                       # number of overall (read+write) accesses (Count)
board.cache_hierarchy.l1icaches.demandMissRate::processor.cores.core.inst     0.000798                       # miss rate for demand accesses (Ratio)
board.cache_hierarchy.l1icaches.demandMissRate::total     0.000798                       # miss rate for demand accesses (Ratio)
board.cache_hierarchy.l1icaches.overallMissRate::processor.cores.core.inst     0.000798                       # miss rate for overall accesses (Ratio)
board.cache_hierarchy.l1icaches.overallMissRate::total     0.000798                       # miss rate for overall accesses (Ratio)
board.cache_hierarchy.l1icaches.demandAvgMissLatency::processor.cores.core.inst 37943.253711                       # average overall miss latency in ticks ((Tick/Count))
board.cache_hierarchy.l1icaches.demandAvgMissLatency::total 37943.253711                       # average overall miss latency in ticks ((Tick/Count))
board.cache_hierarchy.l1icaches.overallAvgMissLatency::processor.cores.core.inst 37943.253711                       # average overall miss latency ((Tick/Count))
board.cache_hierarchy.l1icaches.overallAvgMissLatency::total 37943.253711                       # average overall miss latency ((Tick/Count))
board.cache_hierarchy.l1icaches.blockedCycles::no_mshrs            0                       # number of cycles access was blocked (Cycle)
board.cache_hierarchy.l1icaches.blockedCycles::no_targets            0                       # number of cycles access was blocked (Cycle)
board.cache_hierarchy.l1icaches.blockedCauses::no_mshrs            0                       # number of times access was blocked (Count)
board.cache_hierarchy.l1icaches.blockedCauses::no_targets            0                       # number of times access was blocked (Count)
board.cache_hierarchy.l1icaches.avgBlocked::no_mshrs          nan                       # average number of cycles each access was blocked ((Cycle/Count))
board.cache_hierarchy.l1icaches.avgBlocked::no_targets          nan                       # average number of cycles each access was blocked ((Cycle/Count))
board.cache_hierarchy.l1icaches.demandMshrHits::processor.cores.core.inst        61439                       # number of demand (read+write) MSHR hits (Count)
board.cache_hierarchy.l1icaches.demandMshrHits::total        61439                       # number of demand (read+write) MSHR hits (Count)
board.cache_hierarchy.l1icaches.overallMshrHits::processor.cores.core.inst        61439                       # number of overall MSHR hits (Count)
board.cache_hierarchy.l1icaches.overallMshrHits::total        61439                       # number of overall MSHR hits (Count)
board.cache_hierarchy.l1icaches.demandMshrMisses::processor.cores.core.inst       378766                       # number of demand (read+write) MSHR misses (Count)
board.cache_hierarchy.l1icaches.demandMshrMisses::total       378766                       # number of demand (read+write) MSHR misses (Count)
board.cache_hierarchy.l1icaches.overallMshrMisses::processor.cores.core.inst       378766                       # number of overall MSHR misses (Count)
board.cache_hierarchy.l1icaches.overallMshrMisses::total       378766                       # number of overall MSHR misses (Count)
board.cache_hierarchy.l1icaches.demandMshrMissLatency::processor.cores.core.inst  13937183000                       # number of demand (read+write) MSHR miss ticks (Tick)
board.cache_hierarchy.l1icaches.demandMshrMissLatency::total  13937183000                       # number of demand (read+write) MSHR miss ticks (Tick)
board.cache_hierarchy.l1icaches.overallMshrMissLatency::processor.cores.core.inst  13937183000                       # number of overall MSHR miss ticks (Tick)
board.cache_hierarchy.l1icaches.overallMshrMissLatency::total  13937183000                       # number of overall MSHR miss ticks (Tick)
board.cache_hierarchy.l1icaches.demandMshrMissRate::processor.cores.core.inst     0.000687                       # mshr miss ratio for demand accesses (Ratio)
board.cache_hierarchy.l1icaches.demandMshrMissRate::total     0.000687                       # mshr miss ratio for demand accesses (Ratio)
board.cache_hierarchy.l1icaches.overallMshrMissRate::processor.cores.core.inst     0.000687                       # mshr miss ratio for overall accesses (Ratio)
board.cache_hierarchy.l1icaches.overallMshrMissRate::total     0.000687                       # mshr miss ratio for overall accesses (Ratio)
board.cache_hierarchy.l1icaches.demandAvgMshrMissLatency::processor.cores.core.inst 36796.288474                       # average overall mshr miss latency ((Tick/Count))
board.cache_hierarchy.l1icaches.demandAvgMshrMissLatency::total 36796.288474                       # average overall mshr miss latency ((Tick/Count))
board.cache_hierarchy.l1icaches.overallAvgMshrMissLatency::processor.cores.core.inst 36796.288474                       # average overall mshr miss latency ((Tick/Count))
board.cache_hierarchy.l1icaches.overallAvgMshrMissLatency::total 36796.288474                       # average overall mshr miss latency ((Tick/Count))
board.cache_hierarchy.l1icaches.replacements       378254                       # number of replacements (Count)
board.cache_hierarchy.l1icaches.ReadReq.hits::processor.cores.core.inst    551128002                       # number of ReadReq hits (Count)
board.cache_hierarchy.l1icaches.ReadReq.hits::total    551128002                       # number of ReadReq hits (Count)
board.cache_hierarchy.l1icaches.ReadReq.misses::processor.cores.core.inst       440205                       # number of ReadReq misses (Count)
board.cache_hierarchy.l1icaches.ReadReq.misses::total       440205                       # number of ReadReq misses (Count)
board.cache_hierarchy.l1icaches.ReadReq.missLatency::processor.cores.core.inst  16702810000                       # number of ReadReq miss ticks (Tick)
board.cache_hierarchy.l1icaches.ReadReq.missLatency::total  16702810000                       # number of ReadReq miss ticks (Tick)
board.cache_hierarchy.l1icaches.ReadReq.accesses::processor.cores.core.inst    551568207                       # number of ReadReq accesses(hits+misses) (Count)
board.cache_hierarchy.l1icaches.ReadReq.accesses::total    551568207                       # number of ReadReq accesses(hits+misses) (Count)
board.cache_hierarchy.l1icaches.ReadReq.missRate::processor.cores.core.inst     0.000798                       # miss rate for ReadReq accesses (Ratio)
board.cache_hierarchy.l1icaches.ReadReq.missRate::total     0.000798                       # miss rate for ReadReq accesses (Ratio)
board.cache_hierarchy.l1icaches.ReadReq.avgMissLatency::processor.cores.core.inst 37943.253711                       # average ReadReq miss latency ((Tick/Count))
board.cache_hierarchy.l1icaches.ReadReq.avgMissLatency::total 37943.253711                       # average ReadReq miss latency ((Tick/Count))
board.cache_hierarchy.l1icaches.ReadReq.mshrHits::processor.cores.core.inst        61439                       # number of ReadReq MSHR hits (Count)
board.cache_hierarchy.l1icaches.ReadReq.mshrHits::total        61439                       # number of ReadReq MSHR hits (Count)
board.cache_hierarchy.l1icaches.ReadReq.mshrMisses::processor.cores.core.inst       378766                       # number of ReadReq MSHR misses (Count)
board.cache_hierarchy.l1icaches.ReadReq.mshrMisses::total       378766                       # number of ReadReq MSHR misses (Count)
board.cache_hierarchy.l1icaches.ReadReq.mshrMissLatency::processor.cores.core.inst  13937183000                       # number of ReadReq MSHR miss ticks (Tick)
board.cache_hierarchy.l1icaches.ReadReq.mshrMissLatency::total  13937183000                       # number of ReadReq MSHR miss ticks (Tick)
board.cache_hierarchy.l1icaches.ReadReq.mshrMissRate::processor.cores.core.inst     0.000687                       # mshr miss rate for ReadReq accesses (Ratio)
board.cache_hierarchy.l1icaches.ReadReq.mshrMissRate::total     0.000687                       # mshr miss rate for ReadReq accesses (Ratio)
board.cache_hierarchy.l1icaches.ReadReq.avgMshrMissLatency::processor.cores.core.inst 36796.288474                       # average ReadReq mshr miss latency ((Tick/Count))
board.cache_hierarchy.l1icaches.ReadReq.avgMshrMissLatency::total 36796.288474                       # average ReadReq mshr miss latency ((Tick/Count))
board.cache_hierarchy.l1icaches.power_state.pwrStateResidencyTicks::UNDEFINED 7436149929750                       # Cumulative time (in ticks) in various power states (Tick)
board.cache_hierarchy.l1icaches.prefetcher.demandMshrMisses       378766                       # demands not covered by prefetchs (Count)
board.cache_hierarchy.l1icaches.prefetcher.pfIssued            0                       # number of hwpf issued (Count)
board.cache_hierarchy.l1icaches.prefetcher.pfUseful            0                       # number of useful prefetch (Count)
board.cache_hierarchy.l1icaches.prefetcher.pfUsefulButMiss            0                       # number of hit on prefetch but cache block is not in an usable state (Count)
board.cache_hierarchy.l1icaches.prefetcher.accuracy          nan                       # accuracy of the prefetcher (Count)
board.cache_hierarchy.l1icaches.prefetcher.coverage            0                       # coverage brought by this prefetcher (Count)
board.cache_hierarchy.l1icaches.prefetcher.pfHitInCache            0                       # number of prefetches hitting in cache (Count)
board.cache_hierarchy.l1icaches.prefetcher.pfHitInMSHR            0                       # number of prefetches hitting in a MSHR (Count)
board.cache_hierarchy.l1icaches.prefetcher.pfHitInWB            0                       # number of prefetches hit in the Write Buffer (Count)
board.cache_hierarchy.l1icaches.prefetcher.pfLate            0                       # number of late prefetches (hitting in cache, MSHR or WB) (Count)
board.cache_hierarchy.l1icaches.prefetcher.pfIdentified            0                       # number of prefetch candidates identified (Count)
board.cache_hierarchy.l1icaches.prefetcher.pfBufferHit            0                       # number of redundant prefetches already in prefetch queue (Count)
board.cache_hierarchy.l1icaches.prefetcher.pfInCache            0                       # number of redundant prefetches already in cache/mshr dropped (Count)
board.cache_hierarchy.l1icaches.prefetcher.pfRemovedDemand            0                       # number of prefetches dropped due to a demand for the same address (Count)
board.cache_hierarchy.l1icaches.prefetcher.pfRemovedFull            0                       # number of prefetches dropped due to prefetch queue size (Count)
board.cache_hierarchy.l1icaches.prefetcher.pfSpanPage            0                       # number of prefetches that crossed the page (Count)
board.cache_hierarchy.l1icaches.prefetcher.pfUsefulSpanPage            0                       # number of prefetches that is useful and crossed the page (Count)
board.cache_hierarchy.l1icaches.prefetcher.power_state.pwrStateResidencyTicks::UNDEFINED 7436149929750                       # Cumulative time (in ticks) in various power states (Tick)
board.cache_hierarchy.l1icaches.tags.tagsInUse   511.986762                       # Average ticks per tags in use ((Tick/Count))
board.cache_hierarchy.l1icaches.tags.totalRefs    551506768                       # Total number of references to valid blocks. (Count)
board.cache_hierarchy.l1icaches.tags.sampledRefs       378766                       # Sample count of references to valid blocks. (Count)
board.cache_hierarchy.l1icaches.tags.avgRefs  1456.061970                       # Average number of references to valid blocks. ((Count/Count))
board.cache_hierarchy.l1icaches.tags.warmupTick 5436150008000                       # The tick when the warmup percentage was hit. (Tick)
board.cache_hierarchy.l1icaches.tags.occupancies::processor.cores.core.inst   511.986762                       # Average occupied blocks per tick, per requestor ((Count/Tick))
board.cache_hierarchy.l1icaches.tags.avgOccs::processor.cores.core.inst     0.999974                       # Average percentage of cache occupancy ((Ratio/Tick))
[...]
board.processor.cores.core.fetch.nisnDist::min_value            0                       # Number of instructions fetched each cycle (Total) (Count)
board.processor.cores.core.fetch.nisnDist::max_value            8                       # Number of instructions fetched each cycle (Total) (Count)
board.processor.cores.core.fetch.nisnDist::total   1884008188                       # Number of instructions fetched each cycle (Total) (Count)
board.processor.cores.core.fetchStats0.numInsts   5494252455                       # Number of instructions fetched (thread level) (Count)
board.processor.cores.core.fetchStats0.numOps            0                       # Number of ops (including micro ops) fetched (thread level) (Count)
board.processor.cores.core.fetchStats0.fetchRate     2.909272                       # Number of inst fetches per cycle ((Count/Cycle))
board.processor.cores.core.fetchStats0.numBranches    422029459                       # Number of branches fetched (Count)
board.processor.cores.core.fetchStats0.branchRate     0.223470                       # Number of branch fetches per cycle (Ratio)
board.processor.cores.core.fetchStats0.icacheStallCycles     15387093                       # ICache total stall cycles (Cycle)
board.processor.cores.core.fetchStats0.numFetchSuspends            0                       # Number of times Execute suspended instruction fetching (Count)
board.processor.cores.core.iew.idleCycles            0                       # Number of cycles IEW is idle (Cycle)
board.processor.cores.core.iew.squashCycles      9701201                       # Number of cycles IEW is squashing (Cycle)
board.processor.cores.core.iew.blockCycles     35894543                       # Number of cycles IEW is blocking (Cycle)
board.processor.cores.core.iew.unblockCycles      8358936                       # Number of cycles IEW is unblocking (Cycle)
board.processor.cores.core.iew.dispatchedInsts   5255340032                       # Number of instructions dispatched to IQ (Count)
board.processor.cores.core.iew.dispSquashedInsts       924893                       # Number of squashed instructions skipped by dispatch (Count)
board.processor.cores.core.iew.dispLoadInsts   1490722708                       # Number of dispatched load instructions (Count)
board.processor.cores.core.iew.dispStoreInsts    727370011                       # Number of dispatched store instructions (Count)
board.processor.cores.core.iew.dispNonSpecInsts     13278513                       # Number of dispatched non-speculative instructions (Count)
board.processor.cores.core.iew.iqFullEvents      1211516                       # Number of times the IQ has become full, causing a stall (Count)
board.processor.cores.core.iew.lsqFullEvents      6162385                       # Number of times the LSQ has become full, causing a stall (Count)
board.processor.cores.core.iew.memOrderViolationEvents      4462426                       # Number of memory order violations (Count)
board.processor.cores.core.iew.predictedTakenIncorrect      4528123                       # Number of branches that were predicted taken incorrectly (Count)
board.processor.cores.core.iew.predictedNotTakenIncorrect      1884813                       # Number of branches that were predicted not taken incorrectly (Count)
board.processor.cores.core.iew.branchMispredicts      6412936                       # Number of branch mispredicts detected at execute (Count)
board.processor.cores.core.iew.instsToCommit   5162258162                       # Cumulative count of insts sent to commit (Count)
board.processor.cores.core.iew.writebackCount   5160317781                       # Cumulative count of insts written-back (Count)
board.processor.cores.core.iew.producerInst   4009744808                       # Number of instructions producing a value (Count)
board.processor.cores.core.iew.consumerInst   4939446897                       # Number of instructions consuming a value (Count)
board.processor.cores.core.iew.wbRate        2.732450                       # Insts written-back per cycle ((Count/Cycle))
board.processor.cores.core.iew.wbFanout      0.811780                       # Average fanout of values written-back ((Count/Count))
board.processor.cores.core.lsq0.forwLoads    694817291                       # Number of loads that had data forwarded from stores (Count)
board.processor.cores.core.lsq0.squashedLoads     34401331                       # Number of loads squashed (Count)
board.processor.cores.core.lsq0.ignoredResponses        24489                       # Number of memory responses ignored because the instruction is squashed (Count)
board.processor.cores.core.lsq0.memOrderViolation      4462426                       # Number of memory ordering violations (Count)
board.processor.cores.core.lsq0.squashedStores     23622640                       # Number of stores squashed (Count)
board.processor.cores.core.lsq0.rescheduledLoads        28197                       # Number of loads that were rescheduled (Count)
board.processor.cores.core.lsq0.blockedByCache         5287                       # Number of times an access to memory failed due to the cache being blocked (Count)
board.processor.cores.core.lsq0.loadToUse::samples   1456321348                       # Distribution of cycle latency between the first time a load is issued and its completion (Unspecified)
board.processor.cores.core.lsq0.loadToUse::mean     2.258091                       # Distribution of cycle latency between the first time a load is issued and its completion (Unspecified)
board.processor.cores.core.lsq0.loadToUse::stdev     2.013984                       # Distribution of cycle latency between the first time a load is issued and its completion (Unspecified)
board.processor.cores.core.lsq0.loadToUse::0-9   1452367334     99.73%     99.73% # Distribution of cycle latency between the first time a load is issued and its completion (Unspecified)
board.processor.cores.core.lsq0.loadToUse::10-19      3287964      0.23%     99.95% # Distribution of cycle latency between the first time a load is issued and its completion (Unspecified)
board.processor.cores.core.lsq0.loadToUse::20-29        29065      0.00%     99.96% # Distribution of cycle latency between the first time a load is issued and its completion (Unspecified)
board.processor.cores.core.lsq0.loadToUse::30-39        11613      0.00%     99.96% # Distribution of cycle latency between the first time a load is issued and its completion (Unspecified)
board.processor.cores.core.lsq0.loadToUse::40-49        13918      0.00%     99.96% # Distribution of cycle latency between the first time a load is issued and its completion (Unspecified)
board.processor.cores.core.lsq0.loadToUse::50-59        53295      0.00%     99.96% # Distribution of cycle latency between the first time a load is issued and its completion (Unspecified)
board.processor.cores.core.lsq0.loadToUse::60-69       207709      0.01%     99.98% # Distribution of cycle latency between the first time a load is issued and its completion (Unspecified)
board.processor.cores.core.lsq0.loadToUse::70-79       138009      0.01%     99.99% # Distribution of cycle latency between the first time a load is issued and its completion (Unspecified)
board.processor.cores.core.lsq0.loadToUse::80-89        82419      0.01%     99.99% # Distribution of cycle latency between the first time a load is issued and its completion (Unspecified)
board.processor.cores.core.lsq0.loadToUse::90-99        55937      0.00%     99.99% # Distribution of cycle latency between the first time a load is issued and its completion (Unspecified)
board.processor.cores.core.lsq0.loadToUse::100-109        12223      0.00%    100.00% # Distribution of cycle latency between the first time a load is issued and its completion (Unspecified)
board.processor.cores.core.lsq0.loadToUse::110-119         6810      0.00%    100.00% # Distribution of cycle latency between the first time a load is issued and its completion (Unspecified)
board.processor.cores.core.lsq0.loadToUse::120-129         6272      0.00%    100.00% # Distribution of cycle latency between the first time a load is issued and its completion (Unspecified)
board.processor.cores.core.lsq0.loadToUse::130-139         7655      0.00%    100.00% # Distribution of cycle latency between the first time a load is issued and its completion (Unspecified)
board.processor.cores.core.lsq0.loadToUse::140-149         5342      0.00%    100.00% # Distribution of cycle latency between the first time a load is issued and its completion (Unspecified)
board.processor.cores.core.lsq0.loadToUse::150-159         5881      0.00%    100.00% # Distribution of cycle latency between the first time a load is issued and its completion (Unspecified)
board.processor.cores.core.lsq0.loadToUse::160-169         5741      0.00%    100.00% # Distribution of cycle latency between the first time a load is issued and its completion (Unspecified)
board.processor.cores.core.lsq0.loadToUse::170-179         3769      0.00%    100.00% # Distribution of cycle latency between the first time a load is issued and its completion (Unspecified)
board.processor.cores.core.lsq0.loadToUse::180-189         3253      0.00%    100.00% # Distribution of cycle latency between the first time a load is issued and its completion (Unspecified)
board.processor.cores.core.lsq0.loadToUse::190-199         2596      0.00%    100.00% # Distribution of cycle latency between the first time a load is issued and its completion (Unspecified)
board.processor.cores.core.lsq0.loadToUse::200-209         1674      0.00%    100.00% # Distribution of cycle latency between the first time a load is issued and its completion (Unspecified)
board.processor.cores.core.lsq0.loadToUse::210-219         1034      0.00%    100.00% # Distribution of cycle latency between the first time a load is issued and its completion (Unspecified)
board.processor.cores.core.lsq0.loadToUse::220-229          805      0.00%    100.00% # Distribution of cycle latency between the first time a load is issued and its completion (Unspecified)
board.processor.cores.core.lsq0.loadToUse::230-239          682      0.00%    100.00% # Distribution of cycle latency between the first time a load is issued and its completion (Unspecified)
board.processor.cores.core.lsq0.loadToUse::240-249          671      0.00%    100.00% # Distribution of cycle latency between the first time a load is issued and its completion (Unspecified)
board.processor.cores.core.lsq0.loadToUse::250-259          932      0.00%    100.00% # Distribution of cycle latency between the first time a load is issued and its completion (Unspecified)
board.processor.cores.core.lsq0.loadToUse::260-269          742      0.00%    100.00% # Distribution of cycle latency between the first time a load is issued and its completion (Unspecified)
board.processor.cores.core.lsq0.loadToUse::270-279          753      0.00%    100.00% # Distribution of cycle latency between the first time a load is issued and its completion (Unspecified)
board.processor.cores.core.lsq0.loadToUse::280-289          862      0.00%    100.00% # Distribution of cycle latency between the first time a load is issued and its completion (Unspecified)
board.processor.cores.core.lsq0.loadToUse::290-299          811      0.00%    100.00% # Distribution of cycle latency between the first time a load is issued and its completion (Unspecified)
board.processor.cores.core.lsq0.loadToUse::overflows         5577      0.00%    100.00% # Distribution of cycle latency between the first time a load is issued and its completion (Unspecified)
board.processor.cores.core.lsq0.loadToUse::min_value            2                       # Distribution of cycle latency between the first time a load is issued and its completion (Unspecified)
board.processor.cores.core.lsq0.loadToUse::max_value          729                       # Distribution of cycle latency between the first time a load is issued and its completion (Unspecified)
board.processor.cores.core.lsq0.loadToUse::total   1456321348                       # Distribution of cycle latency between the first time a load is issued and its completion (Unspecified)
board.processor.cores.core.mmu.dtb.readHits   1469006609                       # read hits (Count)
board.processor.cores.core.mmu.dtb.readMisses       107749                       # read misses (Count)
board.processor.cores.core.mmu.dtb.readAccesses   1469114358                       # read accesses (Count)
board.processor.cores.core.mmu.dtb.writeHits    712728348                       # write hits (Count)
board.processor.cores.core.mmu.dtb.writeMisses       124630                       # write misses (Count)
board.processor.cores.core.mmu.dtb.writeAccesses    712852978                       # write accesses (Count)
board.processor.cores.core.mmu.dtb.hits    2181734957                       # Total TLB (read and write) hits (Count)
board.processor.cores.core.mmu.dtb.misses       232379                       # Total TLB (read and write) misses (Count)
board.processor.cores.core.mmu.dtb.accesses   2181967336                       # Total TLB (read and write) accesses (Count)
board.processor.cores.core.mmu.dtb.walker.power_state.pwrStateResidencyTicks::UNDEFINED 7436149929750                       # Cumulative time (in ticks) in various power states (Tick)
board.processor.cores.core.mmu.itb.readHits    551629214                       # read hits (Count)
board.processor.cores.core.mmu.itb.readMisses       489822                       # read misses (Count)
board.processor.cores.core.mmu.itb.readAccesses    552119036                       # read accesses (Count)
board.processor.cores.core.mmu.itb.writeHits            0                       # write hits (Count)
board.processor.cores.core.mmu.itb.writeMisses            0                       # write misses (Count)
board.processor.cores.core.mmu.itb.writeAccesses            0                       # write accesses (Count)
board.processor.cores.core.mmu.itb.hits     551629214                       # Total TLB (read and write) hits (Count)
board.processor.cores.core.mmu.itb.misses       489822                       # Total TLB (read and write) misses (Count)
board.processor.cores.core.mmu.itb.accesses    552119036                       # Total TLB (read and write) accesses (Count)
board.processor.cores.core.mmu.itb.walker.power_state.pwrStateResidencyTicks::UNDEFINED 7436149929750                       # Cumulative time (in ticks) in various power states (Tick)
board.processor.cores.core.power_state.numTransitions           58                       # Number of power state transitions (Count)
board.processor.cores.core.power_state.ticksClkGated::samples           29                       # Distribution of time spent in the clock gated state (Tick)
board.processor.cores.core.power_state.ticksClkGated::mean 3843739793.103448                       # Distribution of time spent in the clock gated state (Tick)
board.processor.cores.core.power_state.ticksClkGated::stdev 580083211.970581                       # Distribution of time spent in the clock gated state (Tick)
board.processor.cores.core.power_state.ticksClkGated::1000-5e+10           29    100.00%    100.00% # Distribution of time spent in the clock gated state (Tick)
board.processor.cores.core.power_state.ticksClkGated::min_value   1388536000                       # Distribution of time spent in the clock gated state (Tick)
board.processor.cores.core.power_state.ticksClkGated::max_value   3997894000                       # Distribution of time spent in the clock gated state (Tick)
board.processor.cores.core.power_state.ticksClkGated::total           29                       # Distribution of time spent in the clock gated state (Tick)
board.processor.cores.core.power_state.pwrStateResidencyTicks::ON 1890767635750                       # Cumulative time (in ticks) in various power states (Tick)
board.processor.cores.core.power_state.pwrStateResidencyTicks::CLK_GATED 111468454000                       # Cumulative time (in ticks) in various power states (Tick)
board.processor.cores.core.rename.squashCycles      9701201                       # Number of cycles rename is squashing (Cycle)
board.processor.cores.core.rename.idleCycles    260985635                       # Number of cycles rename is idle (Cycle)
board.processor.cores.core.rename.blockCycles    179987884                       # Number of cycles rename is blocking (Cycle)
board.processor.cores.core.rename.serializeStallCycles     71891344                       # count of cycles rename stalled for serializing inst (Cycle)
board.processor.cores.core.rename.runCycles    589765678                       # Number of cycles rename is running (Cycle)
board.processor.cores.core.rename.unblockCycles    771676445                       # Number of cycles rename is unblocking (Cycle)
board.processor.cores.core.rename.renamedInsts   5279140659                       # Number of instructions processed by rename (Count)
board.processor.cores.core.rename.ROBFullEvents        65363                       # Number of times rename has blocked due to ROB full (Count)
board.processor.cores.core.rename.IQFullEvents    448320064                       # Number of times rename has blocked due to IQ full (Count)
board.processor.cores.core.rename.LQFullEvents    251018067                       # Number of times rename has blocked due to LQ full (Count)
board.processor.cores.core.rename.SQFullEvents     38924227                       # Number of times rename has blocked due to SQ full (Count)
board.processor.cores.core.rename.renamedOperands   4302582712                       # Number of destination operands rename has renamed (Count)
board.processor.cores.core.rename.lookups   6417573201                       # Number of register rename lookups that rename has made (Count)
board.processor.cores.core.rename.intLookups   6344091301                       # Number of integer rename lookups (Count)
board.processor.cores.core.rename.fpLookups         2551                       # Number of floating rename lookups (Count)
board.processor.cores.core.rename.committedMaps   4149257908                       # Number of HB maps that are committed (Count)
board.processor.cores.core.rename.undoneMaps    153324724                       # Number of HB maps that are undone due to squashing (Count)
board.processor.cores.core.rename.serializing      6652396                       # count of serializing insts renamed (Count)
board.processor.cores.core.rename.tempSerializing      8564289                       # count of temporary serializing insts renamed (Count)
board.processor.cores.core.rename.skidInsts   1569256053                       # count of insts added to the skid buffer (Count)
board.processor.cores.core.rob.reads       6748250369                       # The number of ROB reads (Count)
board.processor.cores.core.rob.writes     10544296329                       # The number of ROB writes (Count)
board.processor.cores.core.thread_0.numInsts   5061313432                       # Number of Instructions committed (Count)
board.processor.cores.core.thread_0.numOps   5065878278                       # Number of Ops committed (Count)
board.processor.cores.core.thread_0.numMemRefs            0                       # Number of Memory References (Count)
board.rng.power_state.pwrStateResidencyTicks::UNDEFINED 7436149929750                       # Cumulative time (in ticks) in various power states (Tick)
board.workload.inst.arm                             0                       # number of arm instructions executed (Count)
board.workload.inst.quiesce                        29                       # number of quiesce instructions executed (Count)

---------- End Simulation Statistics   ----------
