
---------- Begin Simulation Statistics ----------
simSeconds                                          2                       # Number of seconds simulated (Second)
simTicks                                 2000000000000                       # Number of ticks simulated (Tick)
finalTick                                7436149929750                       # Number of ticks from beginning of simulation (restored from checkpoints and never reset) (Tick)
simFreq                                  1000000000000                       # The number of ticks per simulated second ((Tick/Second))
hostSeconds                                  58751.99                       # Real time elapsed on the host (Second)
hostTickRate                                 34041402                       # The number of ticks simulated per host second (ticks/s) ((Tick/Second))
hostMemory                                    8647720                       # Number of bytes of host memory used (Byte)
simInsts                                   5569342634                       # Number of instructions simulated (Count)
simOps                                     5573821089                       # Number of ops (including micro ops) simulated (Count)
hostInstRate                                    94794                       # Simulator instruction rate (inst/s) ((Count/Second))
hostOpRate                                      94870                       # Simulator op (including micro ops) rate (op/s) ((Count/Second))
board.bridge.power_state.pwrStateResidencyTicks::UNDEFINED 7436149929750                       # Cumulative time (in ticks) in various power states (Tick)
board.cache_hierarchy.dptw_caches.demandHits::processor.cores.core.mmu.dtb.walker       347795                       # number of demand (read+write) hits (Count)
board.cache_hierarchy.dptw_caches.demandHits::total       347795                       # number of demand (read+write) hits (Count)
board.cache_hierarchy.dptw_caches.overallHits::processor.cores.core.mmu.dtb.walker       347795                       # number of overall hits (Count)
board.cache_hierarchy.dptw_caches.overallHits::total       347795                       # number of overall hits (Count)
board.cache_hierarchy.dptw_caches.demandMisses::processor.cores.core.mmu.dtb.walker        40135                       # number of demand (read+write) misses (Count)
board.cache_hierarchy.dptw_caches.demandMisses::total        40135                       # number of demand (read+write) misses (Count)
board.cache_hierarchy.dptw_caches.overallMisses::processor.cores.core.mmu.dtb.walker        40135                       # number of overall misses (Count)
board.cache_hierarchy.dptw_caches.overallMisses::total        40135                       # number of overall misses (Count)
board.cache_hierarchy.dptw_caches.demandMissLatency::processor.cores.core.mmu.dtb.walker    603815000                       # number of demand (read+write) miss ticks (Tick)
board.cache_hierarchy.dptw_caches.demandMissLatency::total    603815000                       # number of demand (read+write) miss ticks (Tick)
board.cache_hierarchy.dptw_caches.overallMissLatency::processor.cores.core.mmu.dtb.walker    603815000                       # number of overall miss ticks (Tick)
board.cache_hierarchy.dptw_caches.overallMissLatency::total    603815000                       # number of overall miss ticks (Tick)
board.cache_hierarchy.dptw_caches.demandAccesses::processor.cores.core.mmu.dtb.walker       387930                       # number of demand (read+write) accesses (Count)
board.cache_hierarchy.dptw_caches.demandAccesses::total       387930                       # number of demand (read+write) accesses (Count)
board.cache_hierarchy.dptw_caches.overallAccesses::processor.cores.core.mmu.dtb.walker       387930                       # number of overall (read+write) accesses (Count)
board.cache_hierarchy.dptw_caches.overallAccesses::total       387930                       # number of overall (read+write) accesses (Count)
board.cache_hierarchy.dptw_caches.demandMissRate::processor.cores.core.mmu.dtb.walker     0.103459                       # miss rate for demand accesses (Ratio)
board.cache_hierarchy.dptw_caches.demandMissRate::total     0.103459                       # miss rate for demand accesses (Ratio)
board.cache_hierarchy.dptw_caches.overallMissRate::processor.cores.core.mmu.dtb.walker     0.103459                       # miss rate for overall accesses (Ratio)
board.cache_hierarchy.dptw_caches.overallMissRate::total     0.103459                       # miss rate for overall accesses (Ratio)
board.cache_hierarchy.dptw_caches.demandAvgMissLatency::processor.cores.core.mmu.dtb.walker 15044.599477                       # average overall miss latency in ticks ((Tick/Count))
board.cache_hierarchy.dptw_caches.demandAvgMissLatency::total 15044.599477                       # average overall miss latency in ticks ((Tick/Count))
board.cache_hierarchy.dptw_caches.overallAvgMissLatency::processor.cores.core.mmu.dtb.walker 15044.599477                       # average overall miss latency ((Tick/Count))
board.cache_hierarchy.dptw_caches.overallAvgMissLatency::total 15044.599477                       # average overall miss latency ((Tick/Count))
board.cache_hierarchy.dptw_caches.blockedCycles::no_mshrs            0                       # number of cycles access was blocked (Cycle)
board.cache_hierarchy.dptw_caches.blockedCycles::no_targets            0                       # number of cycles access was blocked (Cycle)
board.cache_hierarchy.dptw_caches.blockedCauses::no_mshrs            0                       # number of times access was blocked (Count)
board.cache_hierarchy.dptw_caches.blockedCauses::no_targets            0                       # number of times access was blocked (Count)
board.cache_hierarchy.dptw_caches.avgBlocked::no_mshrs          nan                       # average number of cycles each access was blocked ((Cycle/Count))
board.cache_hierarchy.dptw_caches.avgBlocked::no_targets          nan                       # average number of cycles each access was blocked ((Cycle/Count))
board.cache_hierarchy.dptw_caches.writebacks::writebacks          334                       # number of writebacks (Count)
board.cache_hierarchy.dptw_caches.writebacks::total          334                       # number of writebacks (Count)
board.cache_hierarchy.dptw_caches.demandMshrMisses::processor.cores.core.mmu.dtb.walker        40135                       # number of demand (read+write) MSHR misses (Count)
board.cache_hierarchy.dptw_caches.demandMshrMisses::total        40135                       # number of demand (read+write) MSHR misses (Count)
board.cache_hierarchy.dptw_caches.overallMshrMisses::processor.cores.core.mmu.dtb.walker        40135                       # number of overall MSHR misses (Count)
board.cache_hierarchy.dptw_caches.overallMshrMisses::total        40135                       # number of overall MSHR misses (Count)
board.cache_hierarchy.dptw_caches.demandMshrMissLatency::processor.cores.core.mmu.dtb.walker    563680000                       # number of demand (read+write) MSHR miss ticks (Tick)
board.cache_hierarchy.dptw_caches.demandMshrMissLatency::total    563680000                       # number of demand (read+write) MSHR miss ticks (Tick)
board.cache_hierarchy.dptw_caches.overallMshrMissLatency::processor.cores.core.mmu.dtb.walker    563680000                       # number of overall MSHR miss ticks (Tick)
board.cache_hierarchy.dptw_caches.overallMshrMissLatency::total    563680000                       # number of overall MSHR miss ticks (Tick)
board.cache_hierarchy.dptw_caches.demandMshrMissRate::processor.cores.core.mmu.dtb.walker     0.103459                       # mshr miss ratio for demand accesses (Ratio)
board.cache_hierarchy.dptw_caches.demandMshrMissRate::total     0.103459                       # mshr miss ratio for demand accesses (Ratio)
board.cache_hierarchy.dptw_caches.overallMshrMissRate::processor.cores.core.mmu.dtb.walker     0.103459                       # mshr miss ratio for overall accesses (Ratio)
board.cache_hierarchy.dptw_caches.overallMshrMissRate::total     0.103459                       # mshr miss ratio for overall accesses (Ratio)
board.cache_hierarchy.dptw_caches.demandAvgMshrMissLatency::processor.cores.core.mmu.dtb.walker 14044.599477                       # average overall mshr miss latency ((Tick/Count))
board.cache_hierarchy.dptw_caches.demandAvgMshrMissLatency::total 14044.599477                       # average overall mshr miss latency ((Tick/Count))
board.cache_hierarchy.dptw_caches.overallAvgMshrMissLatency::processor.cores.core.mmu.dtb.walker 14044.599477                       # average overall mshr miss latency ((Tick/Count))
board.cache_hierarchy.dptw_caches.overallAvgMshrMissLatency::total 14044.599477                       # average overall mshr miss latency ((Tick/Count))
board.cache_hierarchy.dptw_caches.replacements        10327                       # number of replacements (Count)
board.cache_hierarchy.dptw_caches.ReadReq.hits::processor.cores.core.mmu.dtb.walker       347509                       # number of ReadReq hits (Count)
board.cache_hierarchy.dptw_caches.ReadReq.hits::total       347509                       # number of ReadReq hits (Count)
board.cache_hierarchy.dptw_caches.ReadReq.misses::processor.cores.core.mmu.dtb.walker        40022                       # number of ReadReq misses (Count)
board.cache_hierarchy.dptw_caches.ReadReq.misses::total        40022                       # number of ReadReq misses (Count)
board.cache_hierarchy.dptw_caches.ReadReq.missLatency::processor.cores.core.mmu.dtb.walker    603046000                       # number of ReadReq miss ticks (Tick)
board.cache_hierarchy.dptw_caches.ReadReq.missLatency::total    603046000                       # number of ReadReq miss ticks (Tick)
board.cache_hierarchy.dptw_caches.ReadReq.accesses::processor.cores.core.mmu.dtb.walker       387531                       # number of ReadReq accesses(hits+misses) (Count)
board.cache_hierarchy.dptw_caches.ReadReq.accesses::total       387531                       # number of ReadReq accesses(hits+misses) (Count)
board.cache_hierarchy.dptw_caches.ReadReq.missRate::processor.cores.core.mmu.dtb.walker     0.103274                       # miss rate for ReadReq accesses (Ratio)
board.cache_hierarchy.dptw_caches.ReadReq.missRate::total     0.103274                       # miss rate for ReadReq accesses (Ratio)
board.cache_hierarchy.dptw_caches.ReadReq.avgMissLatency::processor.cores.core.mmu.dtb.walker 15067.862676                       # average ReadReq miss latency ((Tick/Count))
board.cache_hierarchy.dptw_caches.ReadReq.avgMissLatency::total 15067.862676                       # average ReadReq miss latency ((Tick/Count))
board.cache_hierarchy.dptw_caches.ReadReq.mshrMisses::processor.cores.core.mmu.dtb.walker        40022                       # number of ReadReq MSHR misses (Count)
board.cache_hierarchy.dptw_caches.ReadReq.mshrMisses::total        40022                       # number of ReadReq MSHR misses (Count)
board.cache_hierarchy.dptw_caches.ReadReq.mshrMissLatency::processor.cores.core.mmu.dtb.walker    563024000                       # number of ReadReq MSHR miss ticks (Tick)
board.cache_hierarchy.dptw_caches.ReadReq.mshrMissLatency::total    563024000                       # number of ReadReq MSHR miss ticks (Tick)
board.cache_hierarchy.dptw_caches.ReadReq.mshrMissRate::processor.cores.core.mmu.dtb.walker     0.103274                       # mshr miss rate for ReadReq accesses (Ratio)
board.cache_hierarchy.dptw_caches.ReadReq.mshrMissRate::total     0.103274                       # mshr miss rate for ReadReq accesses (Ratio)
board.cache_hierarchy.dptw_caches.ReadReq.avgMshrMissLatency::processor.cores.core.mmu.dtb.walker 14067.862676                       # average ReadReq mshr miss latency ((Tick/Count))
board.cache_hierarchy.dptw_caches.ReadReq.avgMshrMissLatency::total 14067.862676                       # average ReadReq mshr miss latency ((Tick/Count))
board.cache_hierarchy.dptw_caches.WriteReq.hits::processor.cores.core.mmu.dtb.walker          286                       # number of WriteReq hits (Count)
board.cache_hierarchy.dptw_caches.WriteReq.hits::total          286                       # number of WriteReq hits (Count)
board.cache_hierarchy.dptw_caches.WriteReq.misses::processor.cores.core.mmu.dtb.walker          113                       # number of WriteReq misses (Count)
board.cache_hierarchy.dptw_caches.WriteReq.misses::total          113                       # number of WriteReq misses (Count)
board.cache_hierarchy.dptw_caches.WriteReq.missLatency::processor.cores.core.mmu.dtb.walker       769000                       # number of WriteReq miss ticks (Tick)
board.cache_hierarchy.dptw_caches.WriteReq.missLatency::total       769000                       # number of WriteReq miss ticks (Tick)
board.cache_hierarchy.dptw_caches.WriteReq.accesses::processor.cores.core.mmu.dtb.walker          399                       # number of WriteReq accesses(hits+misses) (Count)
board.cache_hierarchy.dptw_caches.WriteReq.accesses::total          399                       # number of WriteReq accesses(hits+misses) (Count)
board.cache_hierarchy.dptw_caches.WriteReq.missRate::processor.cores.core.mmu.dtb.walker     0.283208                       # miss rate for WriteReq accesses (Ratio)
board.cache_hierarchy.dptw_caches.WriteReq.missRate::total     0.283208                       # miss rate for WriteReq accesses (Ratio)
board.cache_hierarchy.dptw_caches.WriteReq.avgMissLatency::processor.cores.core.mmu.dtb.walker  6805.309735                       # average WriteReq miss latency ((Tick/Count))
board.cache_hierarchy.dptw_caches.WriteReq.avgMissLatency::total  6805.309735                       # average WriteReq miss latency ((Tick/Count))
board.cache_hierarchy.dptw_caches.WriteReq.mshrMisses::processor.cores.core.mmu.dtb.walker          113                       # number of WriteReq MSHR misses (Count)
board.cache_hierarchy.dptw_caches.WriteReq.mshrMisses::total          113                       # number of WriteReq MSHR misses (Count)
board.cache_hierarchy.dptw_caches.WriteReq.mshrMissLatency::processor.cores.core.mmu.dtb.walker       656000                       # number of WriteReq MSHR miss ticks (Tick)
board.cache_hierarchy.dptw_caches.WriteReq.mshrMissLatency::total       656000                       # number of WriteReq MSHR miss ticks (Tick)
board.cache_hierarchy.dptw_caches.WriteReq.mshrMissRate::processor.cores.core.mmu.dtb.walker     0.283208                       # mshr miss rate for WriteReq accesses (Ratio)
board.cache_hierarchy.dptw_caches.WriteReq.mshrMissRate::total     0.283208                       # mshr miss rate for WriteReq accesses (Ratio)
board.cache_hierarchy.dptw_caches.WriteReq.avgMshrMissLatency::processor.cores.core.mmu.dtb.walker  5805.309735                       # average WriteReq mshr miss latency ((Tick/Count))
board.cache_hierarchy.dptw_caches.WriteReq.avgMshrMissLatency::total  5805.309735                       # average WriteReq mshr miss latency ((Tick/Count))
board.cache_hierarchy.dptw_caches.power_state.pwrStateResidencyTicks::UNDEFINED 7436149929750                       # Cumulative time (in ticks) in various power states (Tick)
board.cache_hierarchy.dptw_caches.tags.tagsInUse   122.580943                       # Average ticks per tags in use ((Tick/Count))
board.cache_hierarchy.dptw_caches.tags.totalRefs       387930                       # Total number of references to valid blocks. (Count)
board.cache_hierarchy.dptw_caches.tags.sampledRefs        40022                       # Sample count of references to valid blocks. (Count)
board.cache_hierarchy.dptw_caches.tags.avgRefs     9.692919                       # Average number of references to valid blocks. ((Count/Count))
board.cache_hierarchy.dptw_caches.tags.warmupTick 5436153332000                       # The tick when the warmup percentage was hit. (Tick)
board.cache_hierarchy.dptw_caches.tags.occupancies::processor.cores.core.mmu.dtb.walker   122.580943                       # Average occupied blocks per tick, per requestor ((Count/Tick))
board.cache_hierarchy.dptw_caches.tags.avgOccs::processor.cores.core.mmu.dtb.walker     0.957664                       # Average percentage of cache occupancy ((Ratio/Tick))
board.cache_hierarchy.dptw_caches.tags.avgOccs::total     0.957664                       # Average percentage of cache occupancy ((Ratio/Tick))
board.cache_hierarchy.dptw_caches.tags.occupanciesTaskId::1024          128                       # Occupied blocks per task id (Count)
board.cache_hierarchy.dptw_caches.tags.ageTaskId_1024::3           16                       # Occupied blocks per task id, per block age (Count)
board.cache_hierarchy.dptw_caches.tags.ageTaskId_1024::4          112                       # Occupied blocks per task id, per block age (Count)
board.cache_hierarchy.dptw_caches.tags.ratioOccsTaskId::1024            1                       # Ratio of occupied blocks and all blocks, per task id (Ratio)
board.cache_hierarchy.dptw_caches.tags.tagAccesses      1591742                       # Number of tag accesses (Count)
board.cache_hierarchy.dptw_caches.tags.dataAccesses      1591742                       # Number of data accesses (Count)
board.cache_hierarchy.dptw_caches.tags.power_state.pwrStateResidencyTicks::UNDEFINED 7436149929750                       # Cumulative time (in ticks) in various power states (Tick)
board.cache_hierarchy.iocache.blockedCycles::no_mshrs            0                       # number of cycles access was blocked (Cycle)
board.cache_hierarchy.iocache.blockedCycles::no_targets            0                       # number of cycles access was blocked (Cycle)
board.cache_hierarchy.iocache.blockedCauses::no_mshrs            0                       # number of times access was blocked (Count)
board.cache_hierarchy.iocache.blockedCauses::no_targets            0                       # number of times access was blocked (Count)
board.cache_hierarchy.iocache.avgBlocked::no_mshrs          nan                       # average number of cycles each access was blocked ((Cycle/Count))
board.cache_hierarchy.iocache.avgBlocked::no_targets          nan                       # average number of cycles each access was blocked ((Cycle/Count))
board.cache_hierarchy.iocache.replacements            0                       # number of replacements (Count)
board.cache_hierarchy.iocache.power_state.pwrStateResidencyTicks::UNDEFINED 7436149929750                       # Cumulative time (in ticks) in various power states (Tick)
board.cache_hierarchy.iocache.tags.tagsInUse            0                       # Average ticks per tags in use ((Tick/Count))
board.cache_hierarchy.iocache.tags.totalRefs            0                       # Total number of references to valid blocks. (Count)
board.cache_hierarchy.iocache.tags.sampledRefs            0                       # Sample count of references to valid blocks. (Count)
board.cache_hierarchy.iocache.tags.avgRefs          nan                       # Average number of references to valid blocks. ((Count/Count))
board.cache_hierarchy.iocache.tags.warmupTick            0                       # The tick when the warmup percentage was hit. (Tick)
board.cache_hierarchy.iocache.tags.tagAccesses            0                       # Number of tag accesses (Count)
board.cache_hierarchy.iocache.tags.dataAccesses            0                       # Number of data accesses (Count)
board.cache_hierarchy.iocache.tags.power_state.pwrStateResidencyTicks::UNDEFINED 7436149929750                       # Cumulative time (in ticks) in various power states (Tick)
board.cache_hierarchy.iptw_caches.demandHits::processor.cores.core.mmu.itb.walker        34072                       # number of demand (read+write) hits (Count)
board.cache_hierarchy.iptw_caches.demandHits::total        34072                       # number of demand (read+write) hits (Count)
board.cache_hierarchy.iptw_caches.overallHits::processor.cores.core.mmu.itb.walker        34072                       # number of overall hits (Count)
board.cache_hierarchy.iptw_caches.overallHits::total        34072                       # number of overall hits (Count)
board.cache_hierarchy.iptw_caches.demandMisses::processor.cores.core.mmu.itb.walker         2515                       # number of demand (read+write) misses (Count)
board.cache_hierarchy.iptw_caches.demandMisses::total         2515                       # number of demand (read+write) misses (Count)
board.cache_hierarchy.iptw_caches.overallMisses::processor.cores.core.mmu.itb.walker         2515                       # number of overall misses (Count)
board.cache_hierarchy.iptw_caches.overallMisses::total         2515                       # number of overall misses (Count)
board.cache_hierarchy.iptw_caches.demandMissLatency::processor.cores.core.mmu.itb.walker    127972000                       # number of demand (read+write) miss ticks (Tick)
board.cache_hierarchy.iptw_caches.demandMissLatency::total    127972000                       # number of demand (read+write) miss ticks (Tick)
board.cache_hierarchy.iptw_caches.overallMissLatency::processor.cores.core.mmu.itb.walker    127972000                       # number of overall miss ticks (Tick)
board.cache_hierarchy.iptw_caches.overallMissLatency::total    127972000                       # number of overall miss ticks (Tick)
board.cache_hierarchy.iptw_caches.demandAccesses::processor.cores.core.mmu.itb.walker        36587                       # number of demand (read+write) accesses (Count)
board.cache_hierarchy.iptw_caches.demandAccesses::total        36587                       # number of demand (read+write) accesses (Count)
board.cache_hierarchy.iptw_caches.overallAccesses::processor.cores.core.mmu.itb.walker        36587                       # number of overall (read+write) accesses (Count)
board.cache_hierarchy.iptw_caches.overallAccesses::total        36587                       # number of overall (read+write) accesses (Count)
board.cache_hierarchy.iptw_caches.demandMissRate::processor.cores.core.mmu.itb.walker     0.068740                       # miss rate for demand accesses (Ratio)
board.cache_hierarchy.iptw_caches.demandMissRate::total     0.068740                       # miss rate for demand accesses (Ratio)
board.cache_hierarchy.iptw_caches.overallMissRate::processor.cores.core.mmu.itb.walker     0.068740                       # miss rate for overall accesses (Ratio)
board.cache_hierarchy.iptw_caches.overallMissRate::total     0.068740                       # miss rate for overall accesses (Ratio)
board.cache_hierarchy.iptw_caches.demandAvgMissLatency::processor.cores.core.mmu.itb.walker 50883.499006                       # average overall miss latency in ticks ((Tick/Count))
board.cache_hierarchy.iptw_caches.demandAvgMissLatency::total 50883.499006                       # average overall miss latency in ticks ((Tick/Count))
board.cache_hierarchy.iptw_caches.overallAvgMissLatency::processor.cores.core.mmu.itb.walker 50883.499006                       # average overall miss latency ((Tick/Count))
board.cache_hierarchy.iptw_caches.overallAvgMissLatency::total 50883.499006                       # average overall miss latency ((Tick/Count))
board.cache_hierarchy.iptw_caches.blockedCycles::no_mshrs            0                       # number of cycles access was blocked (Cycle)
board.cache_hierarchy.iptw_caches.blockedCycles::no_targets            0                       # number of cycles access was blocked (Cycle)
board.cache_hierarchy.iptw_caches.blockedCauses::no_mshrs            0                       # number of times access was blocked (Count)
board.cache_hierarchy.iptw_caches.blockedCauses::no_targets            0                       # number of times access was blocked (Count)
board.cache_hierarchy.iptw_caches.avgBlocked::no_mshrs          nan                       # average number of cycles each access was blocked ((Cycle/Count))
board.cache_hierarchy.iptw_caches.avgBlocked::no_targets          nan                       # average number of cycles each access was blocked ((Cycle/Count))
board.cache_hierarchy.iptw_caches.writebacks::writebacks           21                       # number of writebacks (Count)
board.cache_hierarchy.iptw_caches.writebacks::total           21                       # number of writebacks (Count)
board.cache_hierarchy.iptw_caches.demandMshrMisses::processor.cores.core.mmu.itb.walker         2515                       # number of demand (read+write) MSHR misses (Count)
board.cache_hierarchy.iptw_caches.demandMshrMisses::total         2515                       # number of demand (read+write) MSHR misses (Count)
board.cache_hierarchy.iptw_caches.overallMshrMisses::processor.cores.core.mmu.itb.walker         2515                       # number of overall MSHR misses (Count)
board.cache_hierarchy.iptw_caches.overallMshrMisses::total         2515                       # number of overall MSHR misses (Count)
board.cache_hierarchy.iptw_caches.demandMshrMissLatency::processor.cores.core.mmu.itb.walker    125457000                       # number of demand (read+write) MSHR miss ticks (Tick)
board.cache_hierarchy.iptw_caches.demandMshrMissLatency::total    125457000                       # number of demand (read+write) MSHR miss ticks (Tick)
board.cache_hierarchy.iptw_caches.overallMshrMissLatency::processor.cores.core.mmu.itb.walker    125457000                       # number of overall MSHR miss ticks (Tick)
board.cache_hierarchy.iptw_caches.overallMshrMissLatency::total    125457000                       # number of overall MSHR miss ticks (Tick)
board.cache_hierarchy.iptw_caches.demandMshrMissRate::processor.cores.core.mmu.itb.walker     0.068740                       # mshr miss ratio for demand accesses (Ratio)
board.cache_hierarchy.iptw_caches.demandMshrMissRate::total     0.068740                       # mshr miss ratio for demand accesses (Ratio)
board.cache_hierarchy.iptw_caches.overallMshrMissRate::processor.cores.core.mmu.itb.walker     0.068740                       # mshr miss ratio for overall accesses (Ratio)
board.cache_hierarchy.iptw_caches.overallMshrMissRate::total     0.068740                       # mshr miss ratio for overall accesses (Ratio)
board.cache_hierarchy.iptw_caches.demandAvgMshrMissLatency::processor.cores.core.mmu.itb.walker 49883.499006                       # average overall mshr miss latency ((Tick/Count))
board.cache_hierarchy.iptw_caches.demandAvgMshrMissLatency::total 49883.499006                       # average overall mshr miss latency ((Tick/Count))
board.cache_hierarchy.iptw_caches.overallAvgMshrMissLatency::processor.cores.core.mmu.itb.walker 49883.499006                       # average overall mshr miss latency ((Tick/Count))
board.cache_hierarchy.iptw_caches.overallAvgMshrMissLatency::total 49883.499006                       # average overall mshr miss latency ((Tick/Count))
board.cache_hierarchy.iptw_caches.replacements         1262                       # number of replacements (Count)
board.cache_hierarchy.iptw_caches.ReadReq.hits::processor.cores.core.mmu.itb.walker        34072                       # number of ReadReq hits (Count)
board.cache_hierarchy.iptw_caches.ReadReq.hits::total        34072                       # number of ReadReq hits (Count)
board.cache_hierarchy.iptw_caches.ReadReq.misses::processor.cores.core.mmu.itb.walker         2515                       # number of ReadReq misses (Count)
board.cache_hierarchy.iptw_caches.ReadReq.misses::total         2515                       # number of ReadReq misses (Count)
board.cache_hierarchy.iptw_caches.ReadReq.missLatency::processor.cores.core.mmu.itb.walker    127972000                       # number of ReadReq miss ticks (Tick)
board.cache_hierarchy.iptw_caches.ReadReq.missLatency::total    127972000                       # number of ReadReq miss ticks (Tick)
board.cache_hierarchy.iptw_caches.ReadReq.accesses::processor.cores.core.mmu.itb.walker        36587                       # number of ReadReq accesses(hits+misses) (Count)
board.cache_hierarchy.iptw_caches.ReadReq.accesses::total        36587                       # number of ReadReq accesses(hits+misses) (Count)
board.cache_hierarchy.iptw_caches.ReadReq.missRate::processor.cores.core.mmu.itb.walker     0.068740                       # miss rate for ReadReq accesses (Ratio)
board.cache_hierarchy.iptw_caches.ReadReq.missRate::total     0.068740                       # miss rate for ReadReq accesses (Ratio)
board.cache_hierarchy.iptw_caches.ReadReq.avgMissLatency::processor.cores.core.mmu.itb.walker 50883.499006                       # average ReadReq miss latency ((Tick/Count))
board.cache_hierarchy.iptw_caches.ReadReq.avgMissLatency::total 50883.499006                       # average ReadReq miss latency ((Tick/Count))
board.cache_hierarchy.iptw_caches.ReadReq.mshrMisses::processor.cores.core.mmu.itb.walker         2515                       # number of ReadReq MSHR misses (Count)
board.cache_hierarchy.iptw_caches.ReadReq.mshrMisses::total         2515                       # number of ReadReq MSHR misses (Count)
board.cache_hierarchy.iptw_caches.ReadReq.mshrMissLatency::processor.cores.core.mmu.itb.walker    125457000                       # number of ReadReq MSHR miss ticks (Tick)
board.cache_hierarchy.iptw_caches.ReadReq.mshrMissLatency::total    125457000                       # number of ReadReq MSHR miss ticks (Tick)
board.cache_hierarchy.iptw_caches.ReadReq.mshrMissRate::processor.cores.core.mmu.itb.walker     0.068740                       # mshr miss rate for ReadReq accesses (Ratio)
board.cache_hierarchy.iptw_caches.ReadReq.mshrMissRate::total     0.068740                       # mshr miss rate for ReadReq accesses (Ratio)
board.cache_hierarchy.iptw_caches.ReadReq.avgMshrMissLatency::processor.cores.core.mmu.itb.walker 49883.499006                       # average ReadReq mshr miss latency ((Tick/Count))
board.cache_hierarchy.iptw_caches.ReadReq.avgMshrMissLatency::total 49883.499006                       # average ReadReq mshr miss latency ((Tick/Count))
board.cache_hierarchy.iptw_caches.power_state.pwrStateResidencyTicks::UNDEFINED 7436149929750                       # Cumulative time (in ticks) in various power states (Tick)
board.cache_hierarchy.iptw_caches.tags.tagsInUse    81.479033                       # Average ticks per tags in use ((Tick/Count))
board.cache_hierarchy.iptw_caches.tags.totalRefs        36587                       # Total number of references to valid blocks. (Count)
board.cache_hierarchy.iptw_caches.tags.sampledRefs         2515                       # Sample count of references to valid blocks. (Count)
board.cache_hierarchy.iptw_caches.tags.avgRefs    14.547515                       # Average number of references to valid blocks. ((Count/Count))
board.cache_hierarchy.iptw_caches.tags.warmupTick 5436150247000                       # The tick when the warmup percentage was hit. (Tick)
board.cache_hierarchy.iptw_caches.tags.occupancies::processor.cores.core.mmu.itb.walker    81.479033                       # Average occupied blocks per tick, per requestor ((Count/Tick))
board.cache_hierarchy.iptw_caches.tags.avgOccs::processor.cores.core.mmu.itb.walker     0.636555                       # Average percentage of cache occupancy ((Ratio/Tick))
board.cache_hierarchy.iptw_caches.tags.avgOccs::total     0.636555                       # Average percentage of cache occupancy ((Ratio/Tick))
board.cache_hierarchy.iptw_caches.tags.occupanciesTaskId::1024           87                       # Occupied blocks per task id (Count)
board.cache_hierarchy.iptw_caches.tags.ageTaskId_1024::3            3                       # Occupied blocks per task id, per block age (Count)
board.cache_hierarchy.iptw_caches.tags.ageTaskId_1024::4           84                       # Occupied blocks per task id, per block age (Count)
board.cache_hierarchy.iptw_caches.tags.ratioOccsTaskId::1024     0.679688                       # Ratio of occupied blocks and all blocks, per task id (Ratio)
board.cache_hierarchy.iptw_caches.tags.tagAccesses       148863                       # Number of tag accesses (Count)
board.cache_hierarchy.iptw_caches.tags.dataAccesses       148863                       # Number of data accesses (Count)
board.cache_hierarchy.iptw_caches.tags.power_state.pwrStateResidencyTicks::UNDEFINED 7436149929750                       # Cumulative time (in ticks) in various power states (Tick)
board.cache_hierarchy.l1dcaches.demandHits::processor.cores.core.data   1635503356                       # number of demand (read+write) hits (Count)
board.cache_hierarchy.l1dcaches.demandHits::total   1635503356                       # number of demand (read+write) hits (Count)
board.cache_hierarchy.l1dcaches.overallHits::processor.cores.core.data   1635503356                       # number of overall hits (Count)
board.cache_hierarchy.l1dcaches.overallHits::total   1635503356                       # number of overall hits (Count)
board.cache_hierarchy.l1dcaches.demandMisses::processor.cores.core.data     13558136                       # number of demand (read+write) misses (Count)
board.cache_hierarchy.l1dcaches.demandMisses::total     13558136                       # number of demand (read+write) misses (Count)
board.cache_hierarchy.l1dcaches.overallMisses::processor.cores.core.data     13558136                       # number of overall misses (Count)
board.cache_hierarchy.l1dcaches.overallMisses::total     13558136                       # number of overall misses (Count)
board.cache_hierarchy.l1dcaches.demandMissLatency::processor.cores.core.data 615906921909                       # number of demand (read+write) miss ticks (Tick)
board.cache_hierarchy.l1dcaches.demandMissLatency::total 615906921909                       # number of demand (read+write) miss ticks (Tick)
board.cache_hierarchy.l1dcaches.overallMissLatency::processor.cores.core.data 615906921909                       # number of overall miss ticks (Tick)
board.cache_hierarchy.l1dcaches.overallMissLatency::total 615906921909                       # number of overall miss ticks (Tick)
board.cache_hierarchy.l1dcaches.demandAccesses::processor.cores.core.data   1649061492                       # number of demand (read+write) accesses (Count)
board.cache_hierarchy.l1dcaches.demandAccesses::total   1649061492                       # number of demand (read+write) accesses (Count)
board.cache_hierarchy.l1dcaches.overallAccesses::processor.cores.core.data   1649061492                       # number of overall (read+write) accesses (Count)
board.cache_hierarchy.l1dcaches.overallAccesses::total   1649061492                       # number of overall (read+write) accesses (Count)
board.cache_hierarchy.l1dcaches.demandMissRate::processor.cores.core.data     0.008222                       # miss rate for demand accesses (Ratio)
board.cache_hierarchy.l1dcaches.demandMissRate::total     0.008222                       # miss rate for demand accesses (Ratio)
board.cache_hierarchy.l1dcaches.overallMissRate::processor.cores.core.data     0.008222                       # miss rate for overall accesses (Ratio)
board.cache_hierarchy.l1dcaches.overallMissRate::total     0.008222                       # miss rate for overall accesses (Ratio)
board.cache_hierarchy.l1dcaches.demandAvgMissLatency::processor.cores.core.data 45427.109000                       # average overall miss latency in ticks ((Tick/Count))
board.cache_hierarchy.l1dcaches.demandAvgMissLatency::total 45427.109000                       # average overall miss latency in ticks ((Tick/Count))
board.cache_hierarchy.l1dcaches.overallAvgMissLatency::processor.cores.core.data 45427.109000                       # average overall miss latency ((Tick/Count))
board.cache_hierarchy.l1dcaches.overallAvgMissLatency::total 45427.109000                       # average overall miss latency ((Tick/Count))
board.cache_hierarchy.l1dcaches.blockedCycles::no_mshrs        19220                       # number of cycles access was blocked (Cycle)
board.cache_hierarchy.l1dcaches.blockedCycles::no_targets         8945                       # number of cycles access was blocked (Cycle)
board.cache_hierarchy.l1dcaches.blockedCauses::no_mshrs         4538                       # number of times access was blocked (Count)
board.cache_hierarchy.l1dcaches.blockedCauses::no_targets          203                       # number of times access was blocked (Count)
board.cache_hierarchy.l1dcaches.avgBlocked::no_mshrs     4.235346                       # average number of cycles each access was blocked ((Cycle/Count))
board.cache_hierarchy.l1dcaches.avgBlocked::no_targets    44.064039                       # average number of cycles each access was blocked ((Cycle/Count))
board.cache_hierarchy.l1dcaches.writebacks::writebacks      3568640                       # number of writebacks (Count)
board.cache_hierarchy.l1dcaches.writebacks::total      3568640                       # number of writebacks (Count)
board.cache_hierarchy.l1dcaches.demandMshrHits::processor.cores.core.data      6209839                       # number of demand (read+write) MSHR hits (Count)
board.cache_hierarchy.l1dcaches.demandMshrHits::total      6209839                       # number of demand (read+write) MSHR hits (Count)
board.cache_hierarchy.l1dcaches.overallMshrHits::processor.cores.core.data      6209839                       # number of overall MSHR hits (Count)
board.cache_hierarchy.l1dcaches.overallMshrHits::total      6209839                       # number of overall MSHR hits (Count)
board.cache_hierarchy.l1dcaches.demandMshrMisses::processor.cores.core.data      7348297                       # number of demand (read+write) MSHR misses (Count)
board.cache_hierarchy.l1dcaches.demandMshrMisses::total      7348297                       # number of demand (read+write) MSHR misses (Count)
board.cache_hierarchy.l1dcaches.overallMshrMisses::cache_hierarchy.l1dcaches.prefetcher      1726121                       # number of overall MSHR misses (Count)
board.cache_hierarchy.l1dcaches.overallMshrMisses::processor.cores.core.data      7348297                       # number of overall MSHR misses (Count)
board.cache_hierarchy.l1dcaches.overallMshrMisses::total      9074418                       # number of overall MSHR misses (Count)
board.cache_hierarchy.l1dcaches.overallMshrUncacheable::processor.cores.core.data         5408                       # number of overall MSHR uncacheable misses (Count)
board.cache_hierarchy.l1dcaches.overallMshrUncacheable::total         5408                       # number of overall MSHR uncacheable misses (Count)
board.cache_hierarchy.l1dcaches.demandMshrMissLatency::processor.cores.core.data 159210316962                       # number of demand (read+write) MSHR miss ticks (Tick)
board.cache_hierarchy.l1dcaches.demandMshrMissLatency::total 159210316962                       # number of demand (read+write) MSHR miss ticks (Tick)
board.cache_hierarchy.l1dcaches.overallMshrMissLatency::cache_hierarchy.l1dcaches.prefetcher 139408458324                       # number of overall MSHR miss ticks (Tick)
board.cache_hierarchy.l1dcaches.overallMshrMissLatency::processor.cores.core.data 159210316962                       # number of overall MSHR miss ticks (Tick)
board.cache_hierarchy.l1dcaches.overallMshrMissLatency::total 298618775286                       # number of overall MSHR miss ticks (Tick)
board.cache_hierarchy.l1dcaches.overallMshrUncacheableLatency::processor.cores.core.data    442987000                       # number of overall MSHR uncacheable ticks (Tick)
board.cache_hierarchy.l1dcaches.overallMshrUncacheableLatency::total    442987000                       # number of overall MSHR uncacheable ticks (Tick)
board.cache_hierarchy.l1dcaches.demandMshrMissRate::processor.cores.core.data     0.004456                       # mshr miss ratio for demand accesses (Ratio)
board.cache_hierarchy.l1dcaches.demandMshrMissRate::total     0.004456                       # mshr miss ratio for demand accesses (Ratio)
board.cache_hierarchy.l1dcaches.overallMshrMissRate::cache_hierarchy.l1dcaches.prefetcher          inf                       # mshr miss ratio for overall accesses (Ratio)
board.cache_hierarchy.l1dcaches.overallMshrMissRate::processor.cores.core.data     0.004456                       # mshr miss ratio for overall accesses (Ratio)
board.cache_hierarchy.l1dcaches.overallMshrMissRate::total     0.005503                       # mshr miss ratio for overall accesses (Ratio)
board.cache_hierarchy.l1dcaches.demandAvgMshrMissLatency::processor.cores.core.data 21666.287707                       # average overall mshr miss latency ((Tick/Count))
board.cache_hierarchy.l1dcaches.demandAvgMshrMissLatency::total 21666.287707                       # average overall mshr miss latency ((Tick/Count))
board.cache_hierarchy.l1dcaches.overallAvgMshrMissLatency::cache_hierarchy.l1dcaches.prefetcher 80764.012676                       # average overall mshr miss latency ((Tick/Count))
board.cache_hierarchy.l1dcaches.overallAvgMshrMissLatency::processor.cores.core.data 21666.287707                       # average overall mshr miss latency ((Tick/Count))
board.cache_hierarchy.l1dcaches.overallAvgMshrMissLatency::total 32907.760617                       # average overall mshr miss latency ((Tick/Count))
board.cache_hierarchy.l1dcaches.overallAvgMshrUncacheableLatency::processor.cores.core.data 81913.276627                       # average overall mshr uncacheable latency ((Tick/Count))
board.cache_hierarchy.l1dcaches.overallAvgMshrUncacheableLatency::total 81913.276627                       # average overall mshr uncacheable latency ((Tick/Count))
board.cache_hierarchy.l1dcaches.replacements      9070358                       # number of replacements (Count)
board.cache_hierarchy.l1dcaches.CleanInvalidReq.missLatency::processor.cores.core.data        75000                       # number of CleanInvalidReq miss ticks (Tick)
board.cache_hierarchy.l1dcaches.CleanInvalidReq.missLatency::total        75000                       # number of CleanInvalidReq miss ticks (Tick)
board.cache_hierarchy.l1dcaches.CleanInvalidReq.avgMissLatency::processor.cores.core.data          inf                       # average CleanInvalidReq miss latency ((Tick/Count))
board.cache_hierarchy.l1dcaches.CleanInvalidReq.avgMissLatency::total          inf                       # average CleanInvalidReq miss latency ((Tick/Count))
board.cache_hierarchy.l1dcaches.CleanInvalidReq.mshrMisses::processor.cores.core.data            3                       # number of CleanInvalidReq MSHR misses (Count)
board.cache_hierarchy.l1dcaches.CleanInvalidReq.mshrMisses::total            3                       # number of CleanInvalidReq MSHR misses (Count)
board.cache_hierarchy.l1dcaches.CleanInvalidReq.mshrMissLatency::processor.cores.core.data        72000                       # number of CleanInvalidReq MSHR miss ticks (Tick)
board.cache_hierarchy.l1dcaches.CleanInvalidReq.mshrMissLatency::total        72000                       # number of CleanInvalidReq MSHR miss ticks (Tick)
board.cache_hierarchy.l1dcaches.CleanInvalidReq.mshrMissRate::processor.cores.core.data          inf                       # mshr miss rate for CleanInvalidReq accesses (Ratio)
board.cache_hierarchy.l1dcaches.CleanInvalidReq.mshrMissRate::total          inf                       # mshr miss rate for CleanInvalidReq accesses (Ratio)
board.cache_hierarchy.l1dcaches.CleanInvalidReq.avgMshrMissLatency::processor.cores.core.data        24000                       # average CleanInvalidReq mshr miss latency ((Tick/Count))
board.cache_hierarchy.l1dcaches.CleanInvalidReq.avgMshrMissLatency::total        24000                       # average CleanInvalidReq mshr miss latency ((Tick/Count))
board.cache_hierarchy.l1dcaches.HardPFReq.mshrMisses::cache_hierarchy.l1dcaches.prefetcher      1726121                       # number of HardPFReq MSHR misses (Count)
board.cache_hierarchy.l1dcaches.HardPFReq.mshrMisses::total      1726121                       # number of HardPFReq MSHR misses (Count)
board.cache_hierarchy.l1dcaches.HardPFReq.mshrMissLatency::cache_hierarchy.l1dcaches.prefetcher 139408458324                       # number of HardPFReq MSHR miss ticks (Tick)
board.cache_hierarchy.l1dcaches.HardPFReq.mshrMissLatency::total 139408458324                       # number of HardPFReq MSHR miss ticks (Tick)
board.cache_hierarchy.l1dcaches.HardPFReq.mshrMissRate::cache_hierarchy.l1dcaches.prefetcher          inf                       # mshr miss rate for HardPFReq accesses (Ratio)
board.cache_hierarchy.l1dcaches.HardPFReq.mshrMissRate::total          inf                       # mshr miss rate for HardPFReq accesses (Ratio)
board.cache_hierarchy.l1dcaches.HardPFReq.avgMshrMissLatency::cache_hierarchy.l1dcaches.prefetcher 80764.012676                       # average HardPFReq mshr miss latency ((Tick/Count))
board.cache_hierarchy.l1dcaches.HardPFReq.avgMshrMissLatency::total 80764.012676                       # average HardPFReq mshr miss latency ((Tick/Count))
board.cache_hierarchy.l1dcaches.LoadLockedReq.hits::processor.cores.core.data      4211479                       # number of LoadLockedReq hits (Count)
board.cache_hierarchy.l1dcaches.LoadLockedReq.hits::total      4211479                       # number of LoadLockedReq hits (Count)
board.cache_hierarchy.l1dcaches.LoadLockedReq.misses::processor.cores.core.data         7337                       # number of LoadLockedReq misses (Count)
board.cache_hierarchy.l1dcaches.LoadLockedReq.misses::total         7337                       # number of LoadLockedReq misses (Count)
board.cache_hierarchy.l1dcaches.LoadLockedReq.missLatency::processor.cores.core.data    266853000                       # number of LoadLockedReq miss ticks (Tick)
board.cache_hierarchy.l1dcaches.LoadLockedReq.missLatency::total    266853000                       # number of LoadLockedReq miss ticks (Tick)
board.cache_hierarchy.l1dcaches.LoadLockedReq.accesses::processor.cores.core.data      4218816                       # number of LoadLockedReq accesses(hits+misses) (Count)
board.cache_hierarchy.l1dcaches.LoadLockedReq.accesses::total      4218816                       # number of LoadLockedReq accesses(hits+misses) (Count)
board.cache_hierarchy.l1dcaches.LoadLockedReq.missRate::processor.cores.core.data     0.001739                       # miss rate for LoadLockedReq accesses (Ratio)
board.cache_hierarchy.l1dcaches.LoadLockedReq.missRate::total     0.001739                       # miss rate for LoadLockedReq accesses (Ratio)
board.cache_hierarchy.l1dcaches.LoadLockedReq.avgMissLatency::processor.cores.core.data 36370.860025                       # average LoadLockedReq miss latency ((Tick/Count))
board.cache_hierarchy.l1dcaches.LoadLockedReq.avgMissLatency::total 36370.860025                       # average LoadLockedReq miss latency ((Tick/Count))
board.cache_hierarchy.l1dcaches.LoadLockedReq.mshrHits::processor.cores.core.data         1689                       # number of LoadLockedReq MSHR hits (Count)
board.cache_hierarchy.l1dcaches.LoadLockedReq.mshrHits::total         1689                       # number of LoadLockedReq MSHR hits (Count)
board.cache_hierarchy.l1dcaches.LoadLockedReq.mshrMisses::processor.cores.core.data         5648                       # number of LoadLockedReq MSHR misses (Count)
board.cache_hierarchy.l1dcaches.LoadLockedReq.mshrMisses::total         5648                       # number of LoadLockedReq MSHR misses (Count)
board.cache_hierarchy.l1dcaches.LoadLockedReq.mshrMissLatency::processor.cores.core.data    201636000                       # number of LoadLockedReq MSHR miss ticks (Tick)
board.cache_hierarchy.l1dcaches.LoadLockedReq.mshrMissLatency::total    201636000                       # number of LoadLockedReq MSHR miss ticks (Tick)
board.cache_hierarchy.l1dcaches.LoadLockedReq.mshrMissRate::processor.cores.core.data     0.001339                       # mshr miss rate for LoadLockedReq accesses (Ratio)
board.cache_hierarchy.l1dcaches.LoadLockedReq.mshrMissRate::total     0.001339                       # mshr miss rate for LoadLockedReq accesses (Ratio)
board.cache_hierarchy.l1dcaches.LoadLockedReq.avgMshrMissLatency::processor.cores.core.data 35700.424929                       # average LoadLockedReq mshr miss latency ((Tick/Count))
board.cache_hierarchy.l1dcaches.LoadLockedReq.avgMshrMissLatency::total 35700.424929                       # average LoadLockedReq mshr miss latency ((Tick/Count))
board.cache_hierarchy.l1dcaches.ReadReq.hits::processor.cores.core.data    750236916                       # number of ReadReq hits (Count)
board.cache_hierarchy.l1dcaches.ReadReq.hits::total    750236916                       # number of ReadReq hits (Count)
board.cache_hierarchy.l1dcaches.ReadReq.misses::processor.cores.core.data      7143208                       # number of ReadReq misses (Count)
board.cache_hierarchy.l1dcaches.ReadReq.misses::total      7143208                       # number of ReadReq misses (Count)
board.cache_hierarchy.l1dcaches.ReadReq.missLatency::processor.cores.core.data 127789598000                       # number of ReadReq miss ticks (Tick)
board.cache_hierarchy.l1dcaches.ReadReq.missLatency::total 127789598000                       # number of ReadReq miss ticks (Tick)
board.cache_hierarchy.l1dcaches.ReadReq.accesses::processor.cores.core.data    757380124                       # number of ReadReq accesses(hits+misses) (Count)
board.cache_hierarchy.l1dcaches.ReadReq.accesses::total    757380124                       # number of ReadReq accesses(hits+misses) (Count)
board.cache_hierarchy.l1dcaches.ReadReq.missRate::processor.cores.core.data     0.009431                       # miss rate for ReadReq accesses (Ratio)
board.cache_hierarchy.l1dcaches.ReadReq.missRate::total     0.009431                       # miss rate for ReadReq accesses (Ratio)
board.cache_hierarchy.l1dcaches.ReadReq.avgMissLatency::processor.cores.core.data 17889.664980                       # average ReadReq miss latency ((Tick/Count))
board.cache_hierarchy.l1dcaches.ReadReq.avgMissLatency::total 17889.664980                       # average ReadReq miss latency ((Tick/Count))
board.cache_hierarchy.l1dcaches.ReadReq.mshrHits::processor.cores.core.data       600055                       # number of ReadReq MSHR hits (Count)
board.cache_hierarchy.l1dcaches.ReadReq.mshrHits::total       600055                       # number of ReadReq MSHR hits (Count)
board.cache_hierarchy.l1dcaches.ReadReq.mshrMisses::processor.cores.core.data      6543153                       # number of ReadReq MSHR misses (Count)
board.cache_hierarchy.l1dcaches.ReadReq.mshrMisses::total      6543153                       # number of ReadReq MSHR misses (Count)
board.cache_hierarchy.l1dcaches.ReadReq.mshrUncacheable::processor.cores.core.data         3295                       # number of ReadReq MSHR uncacheable (Count)
board.cache_hierarchy.l1dcaches.ReadReq.mshrUncacheable::total         3295                       # number of ReadReq MSHR uncacheable (Count)
board.cache_hierarchy.l1dcaches.ReadReq.mshrMissLatency::processor.cores.core.data  99809153000                       # number of ReadReq MSHR miss ticks (Tick)
board.cache_hierarchy.l1dcaches.ReadReq.mshrMissLatency::total  99809153000                       # number of ReadReq MSHR miss ticks (Tick)
board.cache_hierarchy.l1dcaches.ReadReq.mshrUncacheableLatency::processor.cores.core.data    442987000                       # number of ReadReq MSHR uncacheable ticks (Tick)
board.cache_hierarchy.l1dcaches.ReadReq.mshrUncacheableLatency::total    442987000                       # number of ReadReq MSHR uncacheable ticks (Tick)
board.cache_hierarchy.l1dcaches.ReadReq.mshrMissRate::processor.cores.core.data     0.008639                       # mshr miss rate for ReadReq accesses (Ratio)
board.cache_hierarchy.l1dcaches.ReadReq.mshrMissRate::total     0.008639                       # mshr miss rate for ReadReq accesses (Ratio)
board.cache_hierarchy.l1dcaches.ReadReq.avgMshrMissLatency::processor.cores.core.data 15253.984279                       # average ReadReq mshr miss latency ((Tick/Count))
board.cache_hierarchy.l1dcaches.ReadReq.avgMshrMissLatency::total 15253.984279                       # average ReadReq mshr miss latency ((Tick/Count))
board.cache_hierarchy.l1dcaches.ReadReq.avgMshrUncacheableLatency::processor.cores.core.data 134442.185129                       # average ReadReq mshr uncacheable latency ((Tick/Count))
board.cache_hierarchy.l1dcaches.ReadReq.avgMshrUncacheableLatency::total 134442.185129                       # average ReadReq mshr uncacheable latency ((Tick/Count))
board.cache_hierarchy.l1dcaches.StoreCondReq.hits::processor.cores.core.data      2120416                       # number of StoreCondReq hits (Count)
board.cache_hierarchy.l1dcaches.StoreCondReq.hits::total      2120416                       # number of StoreCondReq hits (Count)
board.cache_hierarchy.l1dcaches.StoreCondReq.accesses::processor.cores.core.data      2120416                       # number of StoreCondReq accesses(hits+misses) (Count)
board.cache_hierarchy.l1dcaches.StoreCondReq.accesses::total      2120416                       # number of StoreCondReq accesses(hits+misses) (Count)
board.cache_hierarchy.l1dcaches.SwapReq.hits::processor.cores.core.data      2416582                       # number of SwapReq hits (Count)
board.cache_hierarchy.l1dcaches.SwapReq.hits::total      2416582                       # number of SwapReq hits (Count)
board.cache_hierarchy.l1dcaches.SwapReq.misses::processor.cores.core.data        21636                       # number of SwapReq misses (Count)
board.cache_hierarchy.l1dcaches.SwapReq.misses::total        21636                       # number of SwapReq misses (Count)
board.cache_hierarchy.l1dcaches.SwapReq.missLatency::processor.cores.core.data    400176000                       # number of SwapReq miss ticks (Tick)
board.cache_hierarchy.l1dcaches.SwapReq.missLatency::total    400176000                       # number of SwapReq miss ticks (Tick)
board.cache_hierarchy.l1dcaches.SwapReq.accesses::processor.cores.core.data      2438218                       # number of SwapReq accesses(hits+misses) (Count)
board.cache_hierarchy.l1dcaches.SwapReq.accesses::total      2438218                       # number of SwapReq accesses(hits+misses) (Count)
board.cache_hierarchy.l1dcaches.SwapReq.missRate::processor.cores.core.data     0.008874                       # miss rate for SwapReq accesses (Ratio)
board.cache_hierarchy.l1dcaches.SwapReq.missRate::total     0.008874                       # miss rate for SwapReq accesses (Ratio)
board.cache_hierarchy.l1dcaches.SwapReq.avgMissLatency::processor.cores.core.data 18495.840266                       # average SwapReq miss latency ((Tick/Count))
board.cache_hierarchy.l1dcaches.SwapReq.avgMissLatency::total 18495.840266                       # average SwapReq miss latency ((Tick/Count))
board.cache_hierarchy.l1dcaches.SwapReq.mshrHits::processor.cores.core.data           29                       # number of SwapReq MSHR hits (Count)
board.cache_hierarchy.l1dcaches.SwapReq.mshrHits::total           29                       # number of SwapReq MSHR hits (Count)
board.cache_hierarchy.l1dcaches.SwapReq.mshrMisses::processor.cores.core.data        21607                       # number of SwapReq MSHR misses (Count)
board.cache_hierarchy.l1dcaches.SwapReq.mshrMisses::total        21607                       # number of SwapReq MSHR misses (Count)
board.cache_hierarchy.l1dcaches.SwapReq.mshrUncacheable::processor.cores.core.data          729                       # number of SwapReq MSHR uncacheable (Count)
board.cache_hierarchy.l1dcaches.SwapReq.mshrUncacheable::total          729                       # number of SwapReq MSHR uncacheable (Count)
board.cache_hierarchy.l1dcaches.SwapReq.mshrMissLatency::processor.cores.core.data    377732000                       # number of SwapReq MSHR miss ticks (Tick)
board.cache_hierarchy.l1dcaches.SwapReq.mshrMissLatency::total    377732000                       # number of SwapReq MSHR miss ticks (Tick)
board.cache_hierarchy.l1dcaches.SwapReq.mshrMissRate::processor.cores.core.data     0.008862                       # mshr miss rate for SwapReq accesses (Ratio)
board.cache_hierarchy.l1dcaches.SwapReq.mshrMissRate::total     0.008862                       # mshr miss rate for SwapReq accesses (Ratio)
board.cache_hierarchy.l1dcaches.SwapReq.avgMshrMissLatency::processor.cores.core.data 17481.927153                       # average SwapReq mshr miss latency ((Tick/Count))
board.cache_hierarchy.l1dcaches.SwapReq.avgMshrMissLatency::total 17481.927153                       # average SwapReq mshr miss latency ((Tick/Count))
board.cache_hierarchy.l1dcaches.WriteReq.hits::processor.cores.core.data    885266440                       # number of WriteReq hits (Count)
board.cache_hierarchy.l1dcaches.WriteReq.hits::total    885266440                       # number of WriteReq hits (Count)
board.cache_hierarchy.l1dcaches.WriteReq.misses::processor.cores.core.data      6414928                       # number of WriteReq misses (Count)
board.cache_hierarchy.l1dcaches.WriteReq.misses::total      6414928                       # number of WriteReq misses (Count)
board.cache_hierarchy.l1dcaches.WriteReq.missLatency::processor.cores.core.data 488117323909                       # number of WriteReq miss ticks (Tick)
board.cache_hierarchy.l1dcaches.WriteReq.missLatency::total 488117323909                       # number of WriteReq miss ticks (Tick)
board.cache_hierarchy.l1dcaches.WriteReq.accesses::processor.cores.core.data    891681368                       # number of WriteReq accesses(hits+misses) (Count)
board.cache_hierarchy.l1dcaches.WriteReq.accesses::total    891681368                       # number of WriteReq accesses(hits+misses) (Count)
board.cache_hierarchy.l1dcaches.WriteReq.missRate::processor.cores.core.data     0.007194                       # miss rate for WriteReq accesses (Ratio)
board.cache_hierarchy.l1dcaches.WriteReq.missRate::total     0.007194                       # miss rate for WriteReq accesses (Ratio)
board.cache_hierarchy.l1dcaches.WriteReq.avgMissLatency::processor.cores.core.data 76090.849953                       # average WriteReq miss latency ((Tick/Count))
board.cache_hierarchy.l1dcaches.WriteReq.avgMissLatency::total 76090.849953                       # average WriteReq miss latency ((Tick/Count))
board.cache_hierarchy.l1dcaches.WriteReq.mshrHits::processor.cores.core.data      5609784                       # number of WriteReq MSHR hits (Count)
board.cache_hierarchy.l1dcaches.WriteReq.mshrHits::total      5609784                       # number of WriteReq MSHR hits (Count)
board.cache_hierarchy.l1dcaches.WriteReq.mshrMisses::processor.cores.core.data       805144                       # number of WriteReq MSHR misses (Count)
board.cache_hierarchy.l1dcaches.WriteReq.mshrMisses::total       805144                       # number of WriteReq MSHR misses (Count)
board.cache_hierarchy.l1dcaches.WriteReq.mshrUncacheable::processor.cores.core.data         2113                       # number of WriteReq MSHR uncacheable (Count)
board.cache_hierarchy.l1dcaches.WriteReq.mshrUncacheable::total         2113                       # number of WriteReq MSHR uncacheable (Count)
board.cache_hierarchy.l1dcaches.WriteReq.mshrMissLatency::processor.cores.core.data  59401163962                       # number of WriteReq MSHR miss ticks (Tick)
board.cache_hierarchy.l1dcaches.WriteReq.mshrMissLatency::total  59401163962                       # number of WriteReq MSHR miss ticks (Tick)
board.cache_hierarchy.l1dcaches.WriteReq.mshrMissRate::processor.cores.core.data     0.000903                       # mshr miss rate for WriteReq accesses (Ratio)
board.cache_hierarchy.l1dcaches.WriteReq.mshrMissRate::total     0.000903                       # mshr miss rate for WriteReq accesses (Ratio)
board.cache_hierarchy.l1dcaches.WriteReq.avgMshrMissLatency::processor.cores.core.data 73777.068403                       # average WriteReq mshr miss latency ((Tick/Count))
board.cache_hierarchy.l1dcaches.WriteReq.avgMshrMissLatency::total 73777.068403                       # average WriteReq mshr miss latency ((Tick/Count))
board.cache_hierarchy.l1dcaches.power_state.pwrStateResidencyTicks::UNDEFINED 7436149929750                       # Cumulative time (in ticks) in various power states (Tick)
board.cache_hierarchy.l1dcaches.prefetcher.demandMshrMisses      7348297                       # demands not covered by prefetchs (Count)
board.cache_hierarchy.l1dcaches.prefetcher.pfIssued      2775034                       # number of hwpf issued (Count)
board.cache_hierarchy.l1dcaches.prefetcher.pfUnused        82019                       # number of HardPF blocks evicted w/o reference (Count)
board.cache_hierarchy.l1dcaches.prefetcher.pfUseful      1556685                       # number of useful prefetch (Count)
board.cache_hierarchy.l1dcaches.prefetcher.pfUsefulButMiss          711                       # number of hit on prefetch but cache block is not in an usable state (Count)
board.cache_hierarchy.l1dcaches.prefetcher.accuracy     0.560961                       # accuracy of the prefetcher (Count)
board.cache_hierarchy.l1dcaches.prefetcher.coverage     0.174811                       # coverage brought by this prefetcher (Count)
board.cache_hierarchy.l1dcaches.prefetcher.pfHitInCache       497585                       # number of prefetches hitting in cache (Count)
board.cache_hierarchy.l1dcaches.prefetcher.pfHitInMSHR       551327                       # number of prefetches hitting in a MSHR (Count)
board.cache_hierarchy.l1dcaches.prefetcher.pfHitInWB            1                       # number of prefetches hit in the Write Buffer (Count)
board.cache_hierarchy.l1dcaches.prefetcher.pfLate      1048913                       # number of late prefetches (hitting in cache, MSHR or WB) (Count)
board.cache_hierarchy.l1dcaches.prefetcher.pfIdentified      5813851                       # number of prefetch candidates identified (Count)
board.cache_hierarchy.l1dcaches.prefetcher.pfBufferHit      2178785                       # number of redundant prefetches already in prefetch queue (Count)
board.cache_hierarchy.l1dcaches.prefetcher.pfInCache            0                       # number of redundant prefetches already in cache/mshr dropped (Count)
board.cache_hierarchy.l1dcaches.prefetcher.pfRemovedDemand         4762                       # number of prefetches dropped due to a demand for the same address (Count)
board.cache_hierarchy.l1dcaches.prefetcher.pfRemovedFull            0                       # number of prefetches dropped due to prefetch queue size (Count)
board.cache_hierarchy.l1dcaches.prefetcher.pfSpanPage      2226709                       # number of prefetches that crossed the page (Count)
board.cache_hierarchy.l1dcaches.prefetcher.pfUsefulSpanPage          395                       # number of prefetches that is useful and crossed the page (Count)
board.cache_hierarchy.l1dcaches.prefetcher.power_state.pwrStateResidencyTicks::UNDEFINED 7436149929750                       # Cumulative time (in ticks) in various power states (Tick)
board.cache_hierarchy.l1dcaches.tags.tagsInUse   511.990567                       # Average ticks per tags in use ((Tick/Count))
board.cache_hierarchy.l1dcaches.tags.totalRefs   1653353757                       # Total number of references to valid blocks. (Count)
board.cache_hierarchy.l1dcaches.tags.sampledRefs      9070972                       # Sample count of references to valid blocks. (Count)
board.cache_hierarchy.l1dcaches.tags.avgRefs   182.268643                       # Average number of references to valid blocks. ((Count/Count))
board.cache_hierarchy.l1dcaches.tags.warmupTick 5436150177000                       # The tick when the warmup percentage was hit. (Tick)
board.cache_hierarchy.l1dcaches.tags.occupancies::cache_hierarchy.l1dcaches.prefetcher   176.366535                       # Average occupied blocks per tick, per requestor ((Count/Tick))
board.cache_hierarchy.l1dcaches.tags.occupancies::processor.cores.core.data   335.624032                       # Average occupied blocks per tick, per requestor ((Count/Tick))
board.cache_hierarchy.l1dcaches.tags.avgOccs::cache_hierarchy.l1dcaches.prefetcher     0.344466                       # Average percentage of cache occupancy ((Ratio/Tick))
board.cache_hierarchy.l1dcaches.tags.avgOccs::processor.cores.core.data     0.655516                       # Average percentage of cache occupancy ((Ratio/Tick))
board.cache_hierarchy.l1dcaches.tags.avgOccs::total     0.999982                       # Average percentage of cache occupancy ((Ratio/Tick))
board.cache_hierarchy.l1dcaches.tags.occupanciesTaskId::1022          128                       # Occupied blocks per task id (Count)
board.cache_hierarchy.l1dcaches.tags.occupanciesTaskId::1024          384                       # Occupied blocks per task id (Count)
board.cache_hierarchy.l1dcaches.tags.ageTaskId_1022::3          128                       # Occupied blocks per task id, per block age (Count)
board.cache_hierarchy.l1dcaches.tags.ageTaskId_1024::3          384                       # Occupied blocks per task id, per block age (Count)
board.cache_hierarchy.l1dcaches.tags.ratioOccsTaskId::1022     0.250000                       # Ratio of occupied blocks and all blocks, per task id (Ratio)
board.cache_hierarchy.l1dcaches.tags.ratioOccsTaskId::1024     0.750000                       # Ratio of occupied blocks and all blocks, per task id (Ratio)
board.cache_hierarchy.l1dcaches.tags.tagAccesses  13271782532                       # Number of tag accesses (Count)
board.cache_hierarchy.l1dcaches.tags.dataAccesses  13271782532                       # Number of data accesses (Count)
board.cache_hierarchy.l1dcaches.tags.power_state.pwrStateResidencyTicks::UNDEFINED 7436149929750                       # Cumulative time (in ticks) in various power states (Tick)
board.cache_hierarchy.l1icaches.demandHits::processor.cores.core.inst    648528479                       # number of demand (read+write) hits (Count)
board.cache_hierarchy.l1icaches.demandHits::total    648528479                       # number of demand (read+write) hits (Count)
board.cache_hierarchy.l1icaches.overallHits::processor.cores.core.inst    648528479                       # number of overall hits (Count)
board.cache_hierarchy.l1icaches.overallHits::total    648528479                       # number of overall hits (Count)
board.cache_hierarchy.l1icaches.demandMisses::processor.cores.core.inst       342832                       # number of demand (read+write) misses (Count)
board.cache_hierarchy.l1icaches.demandMisses::total       342832                       # number of demand (read+write) misses (Count)
board.cache_hierarchy.l1icaches.overallMisses::processor.cores.core.inst       342832                       # number of overall misses (Count)
board.cache_hierarchy.l1icaches.overallMisses::total       342832                       # number of overall misses (Count)
board.cache_hierarchy.l1icaches.demandMissLatency::processor.cores.core.inst  12836161000                       # number of demand (read+write) miss ticks (Tick)
board.cache_hierarchy.l1icaches.demandMissLatency::total  12836161000                       # number of demand (read+write) miss ticks (Tick)
board.cache_hierarchy.l1icaches.overallMissLatency::processor.cores.core.inst  12836161000                       # number of overall miss ticks (Tick)
board.cache_hierarchy.l1icaches.overallMissLatency::total  12836161000                       # number of overall miss ticks (Tick)
board.cache_hierarchy.l1icaches.demandAccesses::processor.cores.core.inst    648871311                       # number of demand (read+write) accesses (Count)
board.cache_hierarchy.l1icaches.demandAccesses::total    648871311                       # number of demand (read+write) accesses (Count)
board.cache_hierarchy.l1icaches.overallAccesses::processor.cores.core.inst    648871311                       # number of overall (read+write) accesses (Count)
board.cache_hierarchy.l1icaches.overallAccesses::total    648871311                       # number of overall (read+write) accesses (Count)
board.cache_hierarchy.l1icaches.demandMissRate::processor.cores.core.inst     0.000528                       # miss rate for demand accesses (Ratio)
board.cache_hierarchy.l1icaches.demandMissRate::total     0.000528                       # miss rate for demand accesses (Ratio)
board.cache_hierarchy.l1icaches.overallMissRate::processor.cores.core.inst     0.000528                       # miss rate for overall accesses (Ratio)
board.cache_hierarchy.l1icaches.overallMissRate::total     0.000528                       # miss rate for overall accesses (Ratio)
board.cache_hierarchy.l1icaches.demandAvgMissLatency::processor.cores.core.inst 37441.548630                       # average overall miss latency in ticks ((Tick/Count))
board.cache_hierarchy.l1icaches.demandAvgMissLatency::total 37441.548630                       # average overall miss latency in ticks ((Tick/Count))
board.cache_hierarchy.l1icaches.overallAvgMissLatency::processor.cores.core.inst 37441.548630                       # average overall miss latency ((Tick/Count))
board.cache_hierarchy.l1icaches.overallAvgMissLatency::total 37441.548630                       # average overall miss latency ((Tick/Count))
board.cache_hierarchy.l1icaches.blockedCycles::no_mshrs            0                       # number of cycles access was blocked (Cycle)
board.cache_hierarchy.l1icaches.blockedCycles::no_targets            0                       # number of cycles access was blocked (Cycle)
board.cache_hierarchy.l1icaches.blockedCauses::no_mshrs            0                       # number of times access was blocked (Count)
board.cache_hierarchy.l1icaches.blockedCauses::no_targets            0                       # number of times access was blocked (Count)
board.cache_hierarchy.l1icaches.avgBlocked::no_mshrs          nan                       # average number of cycles each access was blocked ((Cycle/Count))
board.cache_hierarchy.l1icaches.avgBlocked::no_targets          nan                       # average number of cycles each access was blocked ((Cycle/Count))
board.cache_hierarchy.l1icaches.demandMshrHits::processor.cores.core.inst        49440                       # number of demand (read+write) MSHR hits (Count)
board.cache_hierarchy.l1icaches.demandMshrHits::total        49440                       # number of demand (read+write) MSHR hits (Count)
board.cache_hierarchy.l1icaches.overallMshrHits::processor.cores.core.inst        49440                       # number of overall MSHR hits (Count)
board.cache_hierarchy.l1icaches.overallMshrHits::total        49440                       # number of overall MSHR hits (Count)
board.cache_hierarchy.l1icaches.demandMshrMisses::processor.cores.core.inst       293392                       # number of demand (read+write) MSHR misses (Count)
board.cache_hierarchy.l1icaches.demandMshrMisses::total       293392                       # number of demand (read+write) MSHR misses (Count)
board.cache_hierarchy.l1icaches.overallMshrMisses::processor.cores.core.inst       293392                       # number of overall MSHR misses (Count)
board.cache_hierarchy.l1icaches.overallMshrMisses::total       293392                       # number of overall MSHR misses (Count)
board.cache_hierarchy.l1icaches.demandMshrMissLatency::processor.cores.core.inst  10627042000                       # number of demand (read+write) MSHR miss ticks (Tick)
board.cache_hierarchy.l1icaches.demandMshrMissLatency::total  10627042000                       # number of demand (read+write) MSHR miss ticks (Tick)
board.cache_hierarchy.l1icaches.overallMshrMissLatency::processor.cores.core.inst  10627042000                       # number of overall MSHR miss ticks (Tick)
board.cache_hierarchy.l1icaches.overallMshrMissLatency::total  10627042000                       # number of overall MSHR miss ticks (Tick)
board.cache_hierarchy.l1icaches.demandMshrMissRate::processor.cores.core.inst     0.000452                       # mshr miss ratio for demand accesses (Ratio)
board.cache_hierarchy.l1icaches.demandMshrMissRate::total     0.000452                       # mshr miss ratio for demand accesses (Ratio)
board.cache_hierarchy.l1icaches.overallMshrMissRate::processor.cores.core.inst     0.000452                       # mshr miss ratio for overall accesses (Ratio)
board.cache_hierarchy.l1icaches.overallMshrMissRate::total     0.000452                       # mshr miss ratio for overall accesses (Ratio)
board.cache_hierarchy.l1icaches.demandAvgMshrMissLatency::processor.cores.core.inst 36221.308011                       # average overall mshr miss latency ((Tick/Count))
board.cache_hierarchy.l1icaches.demandAvgMshrMissLatency::total 36221.308011                       # average overall mshr miss latency ((Tick/Count))
board.cache_hierarchy.l1icaches.overallAvgMshrMissLatency::processor.cores.core.inst 36221.308011                       # average overall mshr miss latency ((Tick/Count))
board.cache_hierarchy.l1icaches.overallAvgMshrMissLatency::total 36221.308011                       # average overall mshr miss latency ((Tick/Count))
board.cache_hierarchy.l1icaches.replacements       292880                       # number of replacements (Count)
board.cache_hierarchy.l1icaches.ReadReq.hits::processor.cores.core.inst    648528479                       # number of ReadReq hits (Count)
board.cache_hierarchy.l1icaches.ReadReq.hits::total    648528479                       # number of ReadReq hits (Count)
board.cache_hierarchy.l1icaches.ReadReq.misses::processor.cores.core.inst       342832                       # number of ReadReq misses (Count)
board.cache_hierarchy.l1icaches.ReadReq.misses::total       342832                       # number of ReadReq misses (Count)
board.cache_hierarchy.l1icaches.ReadReq.missLatency::processor.cores.core.inst  12836161000                       # number of ReadReq miss ticks (Tick)
board.cache_hierarchy.l1icaches.ReadReq.missLatency::total  12836161000                       # number of ReadReq miss ticks (Tick)
board.cache_hierarchy.l1icaches.ReadReq.accesses::processor.cores.core.inst    648871311                       # number of ReadReq accesses(hits+misses) (Count)
board.cache_hierarchy.l1icaches.ReadReq.accesses::total    648871311                       # number of ReadReq accesses(hits+misses) (Count)
board.cache_hierarchy.l1icaches.ReadReq.missRate::processor.cores.core.inst     0.000528                       # miss rate for ReadReq accesses (Ratio)
board.cache_hierarchy.l1icaches.ReadReq.missRate::total     0.000528                       # miss rate for ReadReq accesses (Ratio)
board.cache_hierarchy.l1icaches.ReadReq.avgMissLatency::processor.cores.core.inst 37441.548630                       # average ReadReq miss latency ((Tick/Count))
board.cache_hierarchy.l1icaches.ReadReq.avgMissLatency::total 37441.548630                       # average ReadReq miss latency ((Tick/Count))
board.cache_hierarchy.l1icaches.ReadReq.mshrHits::processor.cores.core.inst        49440                       # number of ReadReq MSHR hits (Count)
board.cache_hierarchy.l1icaches.ReadReq.mshrHits::total        49440                       # number of ReadReq MSHR hits (Count)
board.cache_hierarchy.l1icaches.ReadReq.mshrMisses::processor.cores.core.inst       293392                       # number of ReadReq MSHR misses (Count)
board.cache_hierarchy.l1icaches.ReadReq.mshrMisses::total       293392                       # number of ReadReq MSHR misses (Count)
board.cache_hierarchy.l1icaches.ReadReq.mshrMissLatency::processor.cores.core.inst  10627042000                       # number of ReadReq MSHR miss ticks (Tick)
board.cache_hierarchy.l1icaches.ReadReq.mshrMissLatency::total  10627042000                       # number of ReadReq MSHR miss ticks (Tick)
board.cache_hierarchy.l1icaches.ReadReq.mshrMissRate::processor.cores.core.inst     0.000452                       # mshr miss rate for ReadReq accesses (Ratio)
board.cache_hierarchy.l1icaches.ReadReq.mshrMissRate::total     0.000452                       # mshr miss rate for ReadReq accesses (Ratio)
board.cache_hierarchy.l1icaches.ReadReq.avgMshrMissLatency::processor.cores.core.inst 36221.308011                       # average ReadReq mshr miss latency ((Tick/Count))
board.cache_hierarchy.l1icaches.ReadReq.avgMshrMissLatency::total 36221.308011                       # average ReadReq mshr miss latency ((Tick/Count))
board.cache_hierarchy.l1icaches.power_state.pwrStateResidencyTicks::UNDEFINED 7436149929750                       # Cumulative time (in ticks) in various power states (Tick)
board.cache_hierarchy.l1icaches.prefetcher.demandMshrMisses       293392                       # demands not covered by prefetchs (Count)
board.cache_hierarchy.l1icaches.prefetcher.pfIssued            0                       # number of hwpf issued (Count)
board.cache_hierarchy.l1icaches.prefetcher.pfUseful            0                       # number of useful prefetch (Count)
board.cache_hierarchy.l1icaches.prefetcher.pfUsefulButMiss            0                       # number of hit on prefetch but cache block is not in an usable state (Count)
board.cache_hierarchy.l1icaches.prefetcher.accuracy          nan                       # accuracy of the prefetcher (Count)
board.cache_hierarchy.l1icaches.prefetcher.coverage            0                       # coverage brought by this prefetcher (Count)
board.cache_hierarchy.l1icaches.prefetcher.pfHitInCache            0                       # number of prefetches hitting in cache (Count)
board.cache_hierarchy.l1icaches.prefetcher.pfHitInMSHR            0                       # number of prefetches hitting in a MSHR (Count)
board.cache_hierarchy.l1icaches.prefetcher.pfHitInWB            0                       # number of prefetches hit in the Write Buffer (Count)
board.cache_hierarchy.l1icaches.prefetcher.pfLate            0                       # number of late prefetches (hitting in cache, MSHR or WB) (Count)
board.cache_hierarchy.l1icaches.prefetcher.pfIdentified            0                       # number of prefetch candidates identified (Count)
board.cache_hierarchy.l1icaches.prefetcher.pfBufferHit            0                       # number of redundant prefetches already in prefetch queue (Count)
board.cache_hierarchy.l1icaches.prefetcher.pfInCache            0                       # number of redundant prefetches already in cache/mshr dropped (Count)
board.cache_hierarchy.l1icaches.prefetcher.pfRemovedDemand            0                       # number of prefetches dropped due to a demand for the same address (Count)
board.cache_hierarchy.l1icaches.prefetcher.pfRemovedFull            0                       # number of prefetches dropped due to prefetch queue size (Count)
board.cache_hierarchy.l1icaches.prefetcher.pfSpanPage            0                       # number of prefetches that crossed the page (Count)
board.cache_hierarchy.l1icaches.prefetcher.pfUsefulSpanPage            0                       # number of prefetches that is useful and crossed the page (Count)
board.cache_hierarchy.l1icaches.prefetcher.power_state.pwrStateResidencyTicks::UNDEFINED 7436149929750                       # Cumulative time (in ticks) in various power states (Tick)
[...]
board.processor.cores.core.fetch.nisnDist::min_value            0                       # Number of instructions fetched each cycle (Total) (Count)
board.processor.cores.core.fetch.nisnDist::max_value            8                       # Number of instructions fetched each cycle (Total) (Count)
board.processor.cores.core.fetch.nisnDist::total   1911356502                       # Number of instructions fetched each cycle (Total) (Count)
board.processor.cores.core.fetchStats0.numInsts   6018929898                       # Number of instructions fetched (thread level) (Count)
board.processor.cores.core.fetchStats0.numOps            0                       # Number of ops (including micro ops) fetched (thread level) (Count)
board.processor.cores.core.fetchStats0.fetchRate     3.143537                       # Number of inst fetches per cycle ((Count/Cycle))
board.processor.cores.core.fetchStats0.numBranches    520140173                       # Number of branches fetched (Count)
board.processor.cores.core.fetchStats0.branchRate     0.271656                       # Number of branch fetches per cycle (Ratio)
board.processor.cores.core.fetchStats0.icacheStallCycles     13585334                       # ICache total stall cycles (Cycle)
board.processor.cores.core.fetchStats0.numFetchSuspends            0                       # Number of times Execute suspended instruction fetching (Count)
board.processor.cores.core.iew.idleCycles            0                       # Number of cycles IEW is idle (Cycle)
board.processor.cores.core.iew.squashCycles     10471916                       # Number of cycles IEW is squashing (Cycle)
board.processor.cores.core.iew.blockCycles     57564518                       # Number of cycles IEW is blocking (Cycle)
board.processor.cores.core.iew.unblockCycles     10080889                       # Number of cycles IEW is unblocking (Cycle)
board.processor.cores.core.iew.dispatchedInsts   5860494152                       # Number of instructions dispatched to IQ (Count)
board.processor.cores.core.iew.dispSquashedInsts      1406772                       # Number of squashed instructions skipped by dispatch (Count)
board.processor.cores.core.iew.dispLoadInsts   1764734805                       # Number of dispatched load instructions (Count)
board.processor.cores.core.iew.dispStoreInsts    935985241                       # Number of dispatched store instructions (Count)
board.processor.cores.core.iew.dispNonSpecInsts      9680865                       # Number of dispatched non-speculative instructions (Count)
board.processor.cores.core.iew.iqFullEvents      2398899                       # Number of times the IQ has become full, causing a stall (Count)
board.processor.cores.core.iew.lsqFullEvents      5701990                       # Number of times the LSQ has become full, causing a stall (Count)
board.processor.cores.core.iew.memOrderViolationEvents      4510211                       # Number of memory order violations (Count)
board.processor.cores.core.iew.predictedTakenIncorrect      3366405                       # Number of branches that were predicted taken incorrectly (Count)
board.processor.cores.core.iew.predictedNotTakenIncorrect      2819622                       # Number of branches that were predicted not taken incorrectly (Count)
board.processor.cores.core.iew.branchMispredicts      6186027                       # Number of branch mispredicts detected at execute (Count)
board.processor.cores.core.iew.instsToCommit   5684468265                       # Cumulative count of insts sent to commit (Count)
board.processor.cores.core.iew.writebackCount   5683352649                       # Cumulative count of insts written-back (Count)
board.processor.cores.core.iew.producerInst   4238327126                       # Number of instructions producing a value (Count)
board.processor.cores.core.iew.consumerInst   5555676563                       # Number of instructions consuming a value (Count)
board.processor.cores.core.iew.wbRate        2.968274                       # Insts written-back per cycle ((Count/Cycle))
board.processor.cores.core.iew.wbFanout      0.762882                       # Average fanout of values written-back ((Count/Count))
board.processor.cores.core.lsq0.forwLoads    950031763                       # Number of loads that had data forwarded from stores (Count)
board.processor.cores.core.lsq0.squashedLoads     68452049                       # Number of loads squashed (Count)
board.processor.cores.core.lsq0.ignoredResponses        32228                       # Number of memory responses ignored because the instruction is squashed (Count)
board.processor.cores.core.lsq0.memOrderViolation      4510211                       # Number of memory ordering violations (Count)
board.processor.cores.core.lsq0.squashedStores     39711829                       # Number of stores squashed (Count)
board.processor.cores.core.lsq0.rescheduledLoads         5741                       # Number of loads that were rescheduled (Count)
board.processor.cores.core.lsq0.blockedByCache         4351                       # Number of times an access to memory failed due to the cache being blocked (Count)
board.processor.cores.core.lsq0.loadToUse::samples   1696282734                       # Distribution of cycle latency between the first time a load is issued and its completion (Unspecified)
board.processor.cores.core.lsq0.loadToUse::mean     2.229260                       # Distribution of cycle latency between the first time a load is issued and its completion (Unspecified)
board.processor.cores.core.lsq0.loadToUse::stdev     1.607897                       # Distribution of cycle latency between the first time a load is issued and its completion (Unspecified)
board.processor.cores.core.lsq0.loadToUse::0-9   1689328260     99.59%     99.59% # Distribution of cycle latency between the first time a load is issued and its completion (Unspecified)
board.processor.cores.core.lsq0.loadToUse::10-19      6568961      0.39%     99.98% # Distribution of cycle latency between the first time a load is issued and its completion (Unspecified)
board.processor.cores.core.lsq0.loadToUse::20-29        22551      0.00%     99.98% # Distribution of cycle latency between the first time a load is issued and its completion (Unspecified)
board.processor.cores.core.lsq0.loadToUse::30-39         9799      0.00%     99.98% # Distribution of cycle latency between the first time a load is issued and its completion (Unspecified)
board.processor.cores.core.lsq0.loadToUse::40-49        11318      0.00%     99.98% # Distribution of cycle latency between the first time a load is issued and its completion (Unspecified)
board.processor.cores.core.lsq0.loadToUse::50-59        22291      0.00%     99.98% # Distribution of cycle latency between the first time a load is issued and its completion (Unspecified)
board.processor.cores.core.lsq0.loadToUse::60-69       145499      0.01%     99.99% # Distribution of cycle latency between the first time a load is issued and its completion (Unspecified)
board.processor.cores.core.lsq0.loadToUse::70-79        62087      0.00%     99.99% # Distribution of cycle latency between the first time a load is issued and its completion (Unspecified)
board.processor.cores.core.lsq0.loadToUse::80-89        23511      0.00%     99.99% # Distribution of cycle latency between the first time a load is issued and its completion (Unspecified)
board.processor.cores.core.lsq0.loadToUse::90-99        38067      0.00%    100.00% # Distribution of cycle latency between the first time a load is issued and its completion (Unspecified)
board.processor.cores.core.lsq0.loadToUse::100-109         8415      0.00%    100.00% # Distribution of cycle latency between the first time a load is issued and its completion (Unspecified)
board.processor.cores.core.lsq0.loadToUse::110-119         4983      0.00%    100.00% # Distribution of cycle latency between the first time a load is issued and its completion (Unspecified)
board.processor.cores.core.lsq0.loadToUse::120-129         4925      0.00%    100.00% # Distribution of cycle latency between the first time a load is issued and its completion (Unspecified)
board.processor.cores.core.lsq0.loadToUse::130-139         5940      0.00%    100.00% # Distribution of cycle latency between the first time a load is issued and its completion (Unspecified)
board.processor.cores.core.lsq0.loadToUse::140-149         3960      0.00%    100.00% # Distribution of cycle latency between the first time a load is issued and its completion (Unspecified)
board.processor.cores.core.lsq0.loadToUse::150-159         3901      0.00%    100.00% # Distribution of cycle latency between the first time a load is issued and its completion (Unspecified)
board.processor.cores.core.lsq0.loadToUse::160-169         3870      0.00%    100.00% # Distribution of cycle latency between the first time a load is issued and its completion (Unspecified)
board.processor.cores.core.lsq0.loadToUse::170-179         2701      0.00%    100.00% # Distribution of cycle latency between the first time a load is issued and its completion (Unspecified)
board.processor.cores.core.lsq0.loadToUse::180-189         1631      0.00%    100.00% # Distribution of cycle latency between the first time a load is issued and its completion (Unspecified)
board.processor.cores.core.lsq0.loadToUse::190-199         1215      0.00%    100.00% # Distribution of cycle latency between the first time a load is issued and its completion (Unspecified)
board.processor.cores.core.lsq0.loadToUse::200-209          867      0.00%    100.00% # Distribution of cycle latency between the first time a load is issued and its completion (Unspecified)
board.processor.cores.core.lsq0.loadToUse::210-219          575      0.00%    100.00% # Distribution of cycle latency between the first time a load is issued and its completion (Unspecified)
board.processor.cores.core.lsq0.loadToUse::220-229          635      0.00%    100.00% # Distribution of cycle latency between the first time a load is issued and its completion (Unspecified)
board.processor.cores.core.lsq0.loadToUse::230-239          382      0.00%    100.00% # Distribution of cycle latency between the first time a load is issued and its completion (Unspecified)
board.processor.cores.core.lsq0.loadToUse::240-249          373      0.00%    100.00% # Distribution of cycle latency between the first time a load is issued and its completion (Unspecified)
board.processor.cores.core.lsq0.loadToUse::250-259          462      0.00%    100.00% # Distribution of cycle latency between the first time a load is issued and its completion (Unspecified)
board.processor.cores.core.lsq0.loadToUse::260-269          374      0.00%    100.00% # Distribution of cycle latency between the first time a load is issued and its completion (Unspecified)
board.processor.cores.core.lsq0.loadToUse::270-279          461      0.00%    100.00% # Distribution of cycle latency between the first time a load is issued and its completion (Unspecified)
board.processor.cores.core.lsq0.loadToUse::280-289          542      0.00%    100.00% # Distribution of cycle latency between the first time a load is issued and its completion (Unspecified)
board.processor.cores.core.lsq0.loadToUse::290-299          575      0.00%    100.00% # Distribution of cycle latency between the first time a load is issued and its completion (Unspecified)
board.processor.cores.core.lsq0.loadToUse::overflows         3603      0.00%    100.00% # Distribution of cycle latency between the first time a load is issued and its completion (Unspecified)
board.processor.cores.core.lsq0.loadToUse::min_value            2                       # Distribution of cycle latency between the first time a load is issued and its completion (Unspecified)
board.processor.cores.core.lsq0.loadToUse::max_value          691                       # Distribution of cycle latency between the first time a load is issued and its completion (Unspecified)
board.processor.cores.core.lsq0.loadToUse::total   1696282734                       # Distribution of cycle latency between the first time a load is issued and its completion (Unspecified)
board.processor.cores.core.mmu.dtb.readHits   1711595451                       # read hits (Count)
board.processor.cores.core.mmu.dtb.readMisses        78824                       # read misses (Count)
board.processor.cores.core.mmu.dtb.readAccesses   1711674275                       # read accesses (Count)
board.processor.cores.core.mmu.dtb.writeHits    906021846                       # write hits (Count)
board.processor.cores.core.mmu.dtb.writeMisses        82938                       # write misses (Count)
board.processor.cores.core.mmu.dtb.writeAccesses    906104784                       # write accesses (Count)
board.processor.cores.core.mmu.dtb.hits    2617617297                       # Total TLB (read and write) hits (Count)
board.processor.cores.core.mmu.dtb.misses       161762                       # Total TLB (read and write) misses (Count)
board.processor.cores.core.mmu.dtb.accesses   2617779059                       # Total TLB (read and write) accesses (Count)
board.processor.cores.core.mmu.dtb.walker.power_state.pwrStateResidencyTicks::UNDEFINED 7436149929750                       # Cumulative time (in ticks) in various power states (Tick)
board.processor.cores.core.mmu.itb.readHits    648922811                       # read hits (Count)
board.processor.cores.core.mmu.itb.readMisses        17878                       # read misses (Count)
board.processor.cores.core.mmu.itb.readAccesses    648940689                       # read accesses (Count)
board.processor.cores.core.mmu.itb.writeHits            0                       # write hits (Count)
board.processor.cores.core.mmu.itb.writeMisses            0                       # write misses (Count)
board.processor.cores.core.mmu.itb.writeAccesses            0                       # write accesses (Count)
board.processor.cores.core.mmu.itb.hits     648922811                       # Total TLB (read and write) hits (Count)
board.processor.cores.core.mmu.itb.misses        17878                       # Total TLB (read and write) misses (Count)
board.processor.cores.core.mmu.itb.accesses    648940689                       # Total TLB (read and write) accesses (Count)
board.processor.cores.core.mmu.itb.walker.power_state.pwrStateResidencyTicks::UNDEFINED 7436149929750                       # Cumulative time (in ticks) in various power states (Tick)
board.processor.cores.core.power_state.numTransitions           44                       # Number of power state transitions (Count)
board.processor.cores.core.power_state.ticksClkGated::samples           22                       # Distribution of time spent in the clock gated state (Tick)
board.processor.cores.core.power_state.ticksClkGated::mean 3877285590.909091                       # Distribution of time spent in the clock gated state (Tick)
board.processor.cores.core.power_state.ticksClkGated::stdev 555887076.369677                       # Distribution of time spent in the clock gated state (Tick)
board.processor.cores.core.power_state.ticksClkGated::1000-5e+10           22    100.00%    100.00% # Distribution of time spent in the clock gated state (Tick)
board.processor.cores.core.power_state.ticksClkGated::min_value   1388536000                       # Distribution of time spent in the clock gated state (Tick)
board.processor.cores.core.power_state.ticksClkGated::max_value   3997894000                       # Distribution of time spent in the clock gated state (Tick)
board.processor.cores.core.power_state.ticksClkGated::total           22                       # Distribution of time spent in the clock gated state (Tick)
board.processor.cores.core.power_state.pwrStateResidencyTicks::ON 1916935806750                       # Cumulative time (in ticks) in various power states (Tick)
board.processor.cores.core.power_state.pwrStateResidencyTicks::CLK_GATED  85300283000                       # Cumulative time (in ticks) in various power states (Tick)
board.processor.cores.core.rename.squashCycles     10471916                       # Number of cycles rename is squashing (Cycle)
board.processor.cores.core.rename.idleCycles    274009630                       # Number of cycles rename is idle (Cycle)
board.processor.cores.core.rename.blockCycles    206822667                       # Number of cycles rename is blocking (Cycle)
board.processor.cores.core.rename.serializeStallCycles     43311957                       # count of cycles rename stalled for serializing inst (Cycle)
board.processor.cores.core.rename.runCycles    668438214                       # Number of cycles rename is running (Cycle)
board.processor.cores.core.rename.unblockCycles    708302117                       # Number of cycles rename is unblocking (Cycle)
board.processor.cores.core.rename.renamedInsts   5912376951                       # Number of instructions processed by rename (Count)
board.processor.cores.core.rename.ROBFullEvents        68312                       # Number of times rename has blocked due to ROB full (Count)
board.processor.cores.core.rename.IQFullEvents    367724322                       # Number of times rename has blocked due to IQ full (Count)
board.processor.cores.core.rename.LQFullEvents    263564132                       # Number of times rename has blocked due to LQ full (Count)
board.processor.cores.core.rename.SQFullEvents     29254763                       # Number of times rename has blocked due to SQ full (Count)
board.processor.cores.core.rename.renamedOperands   4640021807                       # Number of destination operands rename has renamed (Count)
board.processor.cores.core.rename.lookups   7340304593                       # Number of register rename lookups that rename has made (Count)
board.processor.cores.core.rename.intLookups   7245487715                       # Number of integer rename lookups (Count)
board.processor.cores.core.rename.fpLookups         2035                       # Number of floating rename lookups (Count)
board.processor.cores.core.rename.committedMaps   4401675823                       # Number of HB maps that are committed (Count)
board.processor.cores.core.rename.undoneMaps    238345899                       # Number of HB maps that are undone due to squashing (Count)
board.processor.cores.core.rename.serializing      3071641                       # count of serializing insts renamed (Count)
board.processor.cores.core.rename.tempSerializing      3133260                       # count of temporary serializing insts renamed (Count)
board.processor.cores.core.rename.skidInsts   1603299259                       # count of insts added to the skid buffer (Count)
board.processor.cores.core.rob.reads       7302330021                       # The number of ROB reads (Count)
board.processor.cores.core.rob.writes     11770125627                       # The number of ROB writes (Count)
board.processor.cores.core.thread_0.numInsts   5569342634                       # Number of Instructions committed (Count)
board.processor.cores.core.thread_0.numOps   5573821089                       # Number of Ops committed (Count)
board.processor.cores.core.thread_0.numMemRefs            0                       # Number of Memory References (Count)
board.rng.power_state.pwrStateResidencyTicks::UNDEFINED 7436149929750                       # Cumulative time (in ticks) in various power states (Tick)
board.workload.inst.arm                             0                       # number of arm instructions executed (Count)
board.workload.inst.quiesce                        22                       # number of quiesce instructions executed (Count)

---------- End Simulation Statistics   ----------
