
---------- Begin Simulation Statistics ----------
simSeconds                                          2                       # Number of seconds simulated (Second)
simTicks                                 2000000000000                       # Number of ticks simulated (Tick)
finalTick                                7436149929750                       # Number of ticks from beginning of simulation (restored from checkpoints and never reset) (Tick)
simFreq                                  1000000000000                       # The number of ticks per simulated second ((Tick/Second))
hostSeconds                                  48706.28                       # Real time elapsed on the host (Second)
hostTickRate                                 41062464                       # The number of ticks simulated per host second (ticks/s) ((Tick/Second))
hostMemory                                    8708220                       # Number of bytes of host memory used (Byte)
simInsts                                   3818695445                       # Number of instructions simulated (Count)
simOps                                     3819042020                       # Number of ops (including micro ops) simulated (Count)
hostInstRate                                    78403                       # Simulator instruction rate (inst/s) ((Count/Second))
hostOpRate                                      78410                       # Simulator op (including micro ops) rate (op/s) ((Count/Second))
board.bridge.power_state.pwrStateResidencyTicks::UNDEFINED 7436149929750                       # Cumulative time (in ticks) in various power states (Tick)
board.cache_hierarchy.dptw_caches.demandHits::processor.cores.core.mmu.dtb.walker       475616                       # number of demand (read+write) hits (Count)
board.cache_hierarchy.dptw_caches.demandHits::total       475616                       # number of demand (read+write) hits (Count)
board.cache_hierarchy.dptw_caches.overallHits::processor.cores.core.mmu.dtb.walker       475616                       # number of overall hits (Count)
board.cache_hierarchy.dptw_caches.overallHits::total       475616                       # number of overall hits (Count)
board.cache_hierarchy.dptw_caches.demandMisses::processor.cores.core.mmu.dtb.walker        54260                       # number of demand (read+write) misses (Count)
board.cache_hierarchy.dptw_caches.demandMisses::total        54260                       # number of demand (read+write) misses (Count)
board.cache_hierarchy.dptw_caches.overallMisses::processor.cores.core.mmu.dtb.walker        54260                       # number of overall misses (Count)
board.cache_hierarchy.dptw_caches.overallMisses::total        54260                       # number of overall misses (Count)
board.cache_hierarchy.dptw_caches.demandMissLatency::processor.cores.core.mmu.dtb.walker    786722000                       # number of demand (read+write) miss ticks (Tick)
board.cache_hierarchy.dptw_caches.demandMissLatency::total    786722000                       # number of demand (read+write) miss ticks (Tick)
board.cache_hierarchy.dptw_caches.overallMissLatency::processor.cores.core.mmu.dtb.walker    786722000                       # number of overall miss ticks (Tick)
board.cache_hierarchy.dptw_caches.overallMissLatency::total    786722000                       # number of overall miss ticks (Tick)
board.cache_hierarchy.dptw_caches.demandAccesses::processor.cores.core.mmu.dtb.walker       529876                       # number of demand (read+write) accesses (Count)
board.cache_hierarchy.dptw_caches.demandAccesses::total       529876                       # number of demand (read+write) accesses (Count)
board.cache_hierarchy.dptw_caches.overallAccesses::processor.cores.core.mmu.dtb.walker       529876                       # number of overall (read+write) accesses (Count)
board.cache_hierarchy.dptw_caches.overallAccesses::total       529876                       # number of overall (read+write) accesses (Count)
board.cache_hierarchy.dptw_caches.demandMissRate::processor.cores.core.mmu.dtb.walker     0.102401                       # miss rate for demand accesses (Ratio)
board.cache_hierarchy.dptw_caches.demandMissRate::total     0.102401                       # miss rate for demand accesses (Ratio)
board.cache_hierarchy.dptw_caches.overallMissRate::processor.cores.core.mmu.dtb.walker     0.102401                       # miss rate for overall accesses (Ratio)
board.cache_hierarchy.dptw_caches.overallMissRate::total     0.102401                       # miss rate for overall accesses (Ratio)
board.cache_hierarchy.dptw_caches.demandAvgMissLatency::processor.cores.core.mmu.dtb.walker 14499.115370                       # average overall miss latency in ticks ((Tick/Count))
board.cache_hierarchy.dptw_caches.demandAvgMissLatency::total 14499.115370                       # average overall miss latency in ticks ((Tick/Count))
board.cache_hierarchy.dptw_caches.overallAvgMissLatency::processor.cores.core.mmu.dtb.walker 14499.115370                       # average overall miss latency ((Tick/Count))
board.cache_hierarchy.dptw_caches.overallAvgMissLatency::total 14499.115370                       # average overall miss latency ((Tick/Count))
board.cache_hierarchy.dptw_caches.blockedCycles::no_mshrs            0                       # number of cycles access was blocked (Cycle)
board.cache_hierarchy.dptw_caches.blockedCycles::no_targets            0                       # number of cycles access was blocked (Cycle)
board.cache_hierarchy.dptw_caches.blockedCauses::no_mshrs            0                       # number of times access was blocked (Count)
board.cache_hierarchy.dptw_caches.blockedCauses::no_targets            0                       # number of times access was blocked (Count)
board.cache_hierarchy.dptw_caches.avgBlocked::no_mshrs          nan                       # average number of cycles each access was blocked ((Cycle/Count))
board.cache_hierarchy.dptw_caches.avgBlocked::no_targets          nan                       # average number of cycles each access was blocked ((Cycle/Count))
board.cache_hierarchy.dptw_caches.writebacks::writebacks          363                       # number of writebacks (Count)
board.cache_hierarchy.dptw_caches.writebacks::total          363                       # number of writebacks (Count)
board.cache_hierarchy.dptw_caches.demandMshrMisses::processor.cores.core.mmu.dtb.walker        54260                       # number of demand (read+write) MSHR misses (Count)
board.cache_hierarchy.dptw_caches.demandMshrMisses::total        54260                       # number of demand (read+write) MSHR misses (Count)
board.cache_hierarchy.dptw_caches.overallMshrMisses::processor.cores.core.mmu.dtb.walker        54260                       # number of overall MSHR misses (Count)
board.cache_hierarchy.dptw_caches.overallMshrMisses::total        54260                       # number of overall MSHR misses (Count)
board.cache_hierarchy.dptw_caches.demandMshrMissLatency::processor.cores.core.mmu.dtb.walker    732462000                       # number of demand (read+write) MSHR miss ticks (Tick)
board.cache_hierarchy.dptw_caches.demandMshrMissLatency::total    732462000                       # number of demand (read+write) MSHR miss ticks (Tick)
board.cache_hierarchy.dptw_caches.overallMshrMissLatency::processor.cores.core.mmu.dtb.walker    732462000                       # number of overall MSHR miss ticks (Tick)
board.cache_hierarchy.dptw_caches.overallMshrMissLatency::total    732462000                       # number of overall MSHR miss ticks (Tick)
board.cache_hierarchy.dptw_caches.demandMshrMissRate::processor.cores.core.mmu.dtb.walker     0.102401                       # mshr miss ratio for demand accesses (Ratio)
board.cache_hierarchy.dptw_caches.demandMshrMissRate::total     0.102401                       # mshr miss ratio for demand accesses (Ratio)
board.cache_hierarchy.dptw_caches.overallMshrMissRate::processor.cores.core.mmu.dtb.walker     0.102401                       # mshr miss ratio for overall accesses (Ratio)
board.cache_hierarchy.dptw_caches.overallMshrMissRate::total     0.102401                       # mshr miss ratio for overall accesses (Ratio)
board.cache_hierarchy.dptw_caches.demandAvgMshrMissLatency::processor.cores.core.mmu.dtb.walker 13499.115370                       # average overall mshr miss latency ((Tick/Count))
board.cache_hierarchy.dptw_caches.demandAvgMshrMissLatency::total 13499.115370                       # average overall mshr miss latency ((Tick/Count))
board.cache_hierarchy.dptw_caches.overallAvgMshrMissLatency::processor.cores.core.mmu.dtb.walker 13499.115370                       # average overall mshr miss latency ((Tick/Count))
board.cache_hierarchy.dptw_caches.overallAvgMshrMissLatency::total 13499.115370                       # average overall mshr miss latency ((Tick/Count))
board.cache_hierarchy.dptw_caches.replacements        13168                       # number of replacements (Count)
board.cache_hierarchy.dptw_caches.ReadReq.hits::processor.cores.core.mmu.dtb.walker       475276                       # number of ReadReq hits (Count)
board.cache_hierarchy.dptw_caches.ReadReq.hits::total       475276                       # number of ReadReq hits (Count)
board.cache_hierarchy.dptw_caches.ReadReq.misses::processor.cores.core.mmu.dtb.walker        54130                       # number of ReadReq misses (Count)
board.cache_hierarchy.dptw_caches.ReadReq.misses::total        54130                       # number of ReadReq misses (Count)
board.cache_hierarchy.dptw_caches.ReadReq.missLatency::processor.cores.core.mmu.dtb.walker    785849000                       # number of ReadReq miss ticks (Tick)
board.cache_hierarchy.dptw_caches.ReadReq.missLatency::total    785849000                       # number of ReadReq miss ticks (Tick)
board.cache_hierarchy.dptw_caches.ReadReq.accesses::processor.cores.core.mmu.dtb.walker       529406                       # number of ReadReq accesses(hits+misses) (Count)
board.cache_hierarchy.dptw_caches.ReadReq.accesses::total       529406                       # number of ReadReq accesses(hits+misses) (Count)
board.cache_hierarchy.dptw_caches.ReadReq.missRate::processor.cores.core.mmu.dtb.walker     0.102247                       # miss rate for ReadReq accesses (Ratio)
board.cache_hierarchy.dptw_caches.ReadReq.missRate::total     0.102247                       # miss rate for ReadReq accesses (Ratio)
board.cache_hierarchy.dptw_caches.ReadReq.avgMissLatency::processor.cores.core.mmu.dtb.walker 14517.808978                       # average ReadReq miss latency ((Tick/Count))
board.cache_hierarchy.dptw_caches.ReadReq.avgMissLatency::total 14517.808978                       # average ReadReq miss latency ((Tick/Count))
board.cache_hierarchy.dptw_caches.ReadReq.mshrMisses::processor.cores.core.mmu.dtb.walker        54130                       # number of ReadReq MSHR misses (Count)
board.cache_hierarchy.dptw_caches.ReadReq.mshrMisses::total        54130                       # number of ReadReq MSHR misses (Count)
board.cache_hierarchy.dptw_caches.ReadReq.mshrMissLatency::processor.cores.core.mmu.dtb.walker    731719000                       # number of ReadReq MSHR miss ticks (Tick)
board.cache_hierarchy.dptw_caches.ReadReq.mshrMissLatency::total    731719000                       # number of ReadReq MSHR miss ticks (Tick)
board.cache_hierarchy.dptw_caches.ReadReq.mshrMissRate::processor.cores.core.mmu.dtb.walker     0.102247                       # mshr miss rate for ReadReq accesses (Ratio)
board.cache_hierarchy.dptw_caches.ReadReq.mshrMissRate::total     0.102247                       # mshr miss rate for ReadReq accesses (Ratio)
board.cache_hierarchy.dptw_caches.ReadReq.avgMshrMissLatency::processor.cores.core.mmu.dtb.walker 13517.808978                       # average ReadReq mshr miss latency ((Tick/Count))
board.cache_hierarchy.dptw_caches.ReadReq.avgMshrMissLatency::total 13517.808978                       # average ReadReq mshr miss latency ((Tick/Count))
board.cache_hierarchy.dptw_caches.WriteReq.hits::processor.cores.core.mmu.dtb.walker          340                       # number of WriteReq hits (Count)
board.cache_hierarchy.dptw_caches.WriteReq.hits::total          340                       # number of WriteReq hits (Count)
board.cache_hierarchy.dptw_caches.WriteReq.misses::processor.cores.core.mmu.dtb.walker          130                       # number of WriteReq misses (Count)
board.cache_hierarchy.dptw_caches.WriteReq.misses::total          130                       # number of WriteReq misses (Count)
board.cache_hierarchy.dptw_caches.WriteReq.missLatency::processor.cores.core.mmu.dtb.walker       873000                       # number of WriteReq miss ticks (Tick)
board.cache_hierarchy.dptw_caches.WriteReq.missLatency::total       873000                       # number of WriteReq miss ticks (Tick)
board.cache_hierarchy.dptw_caches.WriteReq.accesses::processor.cores.core.mmu.dtb.walker          470                       # number of WriteReq accesses(hits+misses) (Count)
board.cache_hierarchy.dptw_caches.WriteReq.accesses::total          470                       # number of WriteReq accesses(hits+misses) (Count)
board.cache_hierarchy.dptw_caches.WriteReq.missRate::processor.cores.core.mmu.dtb.walker     0.276596                       # miss rate for WriteReq accesses (Ratio)
board.cache_hierarchy.dptw_caches.WriteReq.missRate::total     0.276596                       # miss rate for WriteReq accesses (Ratio)
board.cache_hierarchy.dptw_caches.WriteReq.avgMissLatency::processor.cores.core.mmu.dtb.walker  6715.384615                       # average WriteReq miss latency ((Tick/Count))
board.cache_hierarchy.dptw_caches.WriteReq.avgMissLatency::total  6715.384615                       # average WriteReq miss latency ((Tick/Count))
board.cache_hierarchy.dptw_caches.WriteReq.mshrMisses::processor.cores.core.mmu.dtb.walker          130                       # number of WriteReq MSHR misses (Count)
board.cache_hierarchy.dptw_caches.WriteReq.mshrMisses::total          130                       # number of WriteReq MSHR misses (Count)
board.cache_hierarchy.dptw_caches.WriteReq.mshrMissLatency::processor.cores.core.mmu.dtb.walker       743000                       # number of WriteReq MSHR miss ticks (Tick)
board.cache_hierarchy.dptw_caches.WriteReq.mshrMissLatency::total       743000                       # number of WriteReq MSHR miss ticks (Tick)
board.cache_hierarchy.dptw_caches.WriteReq.mshrMissRate::processor.cores.core.mmu.dtb.walker     0.276596                       # mshr miss rate for WriteReq accesses (Ratio)
board.cache_hierarchy.dptw_caches.WriteReq.mshrMissRate::total     0.276596                       # mshr miss rate for WriteReq accesses (Ratio)
board.cache_hierarchy.dptw_caches.WriteReq.avgMshrMissLatency::processor.cores.core.mmu.dtb.walker  5715.384615                       # average WriteReq mshr miss latency ((Tick/Count))
board.cache_hierarchy.dptw_caches.WriteReq.avgMshrMissLatency::total  5715.384615                       # average WriteReq mshr miss latency ((Tick/Count))
board.cache_hierarchy.dptw_caches.power_state.pwrStateResidencyTicks::UNDEFINED 7436149929750                       # Cumulative time (in ticks) in various power states (Tick)
board.cache_hierarchy.dptw_caches.tags.tagsInUse   114.958567                       # Average ticks per tags in use ((Tick/Count))
board.cache_hierarchy.dptw_caches.tags.totalRefs       529876                       # Total number of references to valid blocks. (Count)
board.cache_hierarchy.dptw_caches.tags.sampledRefs        54130                       # Sample count of references to valid blocks. (Count)
board.cache_hierarchy.dptw_caches.tags.avgRefs     9.788953                       # Average number of references to valid blocks. ((Count/Count))
board.cache_hierarchy.dptw_caches.tags.warmupTick 5436153332000                       # The tick when the warmup percentage was hit. (Tick)
board.cache_hierarchy.dptw_caches.tags.occupancies::processor.cores.core.mmu.dtb.walker   114.958567                       # Average occupied blocks per tick, per requestor ((Count/Tick))
board.cache_hierarchy.dptw_caches.tags.avgOccs::processor.cores.core.mmu.dtb.walker     0.898114                       # Average percentage of cache occupancy ((Ratio/Tick))
board.cache_hierarchy.dptw_caches.tags.avgOccs::total     0.898114                       # Average percentage of cache occupancy ((Ratio/Tick))
board.cache_hierarchy.dptw_caches.tags.occupanciesTaskId::1024          128                       # Occupied blocks per task id (Count)
board.cache_hierarchy.dptw_caches.tags.ageTaskId_1024::0            1                       # Occupied blocks per task id, per block age (Count)
board.cache_hierarchy.dptw_caches.tags.ageTaskId_1024::2            6                       # Occupied blocks per task id, per block age (Count)
board.cache_hierarchy.dptw_caches.tags.ageTaskId_1024::3           22                       # Occupied blocks per task id, per block age (Count)
board.cache_hierarchy.dptw_caches.tags.ageTaskId_1024::4           99                       # Occupied blocks per task id, per block age (Count)
board.cache_hierarchy.dptw_caches.tags.ratioOccsTaskId::1024            1                       # Ratio of occupied blocks and all blocks, per task id (Ratio)
board.cache_hierarchy.dptw_caches.tags.tagAccesses      2173634                       # Number of tag accesses (Count)
board.cache_hierarchy.dptw_caches.tags.dataAccesses      2173634                       # Number of data accesses (Count)
board.cache_hierarchy.dptw_caches.tags.power_state.pwrStateResidencyTicks::UNDEFINED 7436149929750                       # Cumulative time (in ticks) in various power states (Tick)
board.cache_hierarchy.iocache.blockedCycles::no_mshrs            0                       # number of cycles access was blocked (Cycle)
board.cache_hierarchy.iocache.blockedCycles::no_targets            0                       # number of cycles access was blocked (Cycle)
board.cache_hierarchy.iocache.blockedCauses::no_mshrs            0                       # number of times access was blocked (Count)
board.cache_hierarchy.iocache.blockedCauses::no_targets            0                       # number of times access was blocked (Count)
board.cache_hierarchy.iocache.avgBlocked::no_mshrs          nan                       # average number of cycles each access was blocked ((Cycle/Count))
board.cache_hierarchy.iocache.avgBlocked::no_targets          nan                       # average number of cycles each access was blocked ((Cycle/Count))
board.cache_hierarchy.iocache.replacements            0                       # number of replacements (Count)
board.cache_hierarchy.iocache.power_state.pwrStateResidencyTicks::UNDEFINED 7436149929750                       # Cumulative time (in ticks) in various power states (Tick)
board.cache_hierarchy.iocache.tags.tagsInUse            0                       # Average ticks per tags in use ((Tick/Count))
board.cache_hierarchy.iocache.tags.totalRefs            0                       # Total number of references to valid blocks. (Count)
board.cache_hierarchy.iocache.tags.sampledRefs            0                       # Sample count of references to valid blocks. (Count)
board.cache_hierarchy.iocache.tags.avgRefs          nan                       # Average number of references to valid blocks. ((Count/Count))
board.cache_hierarchy.iocache.tags.warmupTick            0                       # The tick when the warmup percentage was hit. (Tick)
board.cache_hierarchy.iocache.tags.tagAccesses            0                       # Number of tag accesses (Count)
board.cache_hierarchy.iocache.tags.dataAccesses            0                       # Number of data accesses (Count)
board.cache_hierarchy.iocache.tags.power_state.pwrStateResidencyTicks::UNDEFINED 7436149929750                       # Cumulative time (in ticks) in various power states (Tick)
board.cache_hierarchy.iptw_caches.demandHits::processor.cores.core.mmu.itb.walker        27564                       # number of demand (read+write) hits (Count)
board.cache_hierarchy.iptw_caches.demandHits::total        27564                       # number of demand (read+write) hits (Count)
board.cache_hierarchy.iptw_caches.overallHits::processor.cores.core.mmu.itb.walker        27564                       # number of overall hits (Count)
board.cache_hierarchy.iptw_caches.overallHits::total        27564                       # number of overall hits (Count)
board.cache_hierarchy.iptw_caches.demandMisses::processor.cores.core.mmu.itb.walker         3472                       # number of demand (read+write) misses (Count)
board.cache_hierarchy.iptw_caches.demandMisses::total         3472                       # number of demand (read+write) misses (Count)
board.cache_hierarchy.iptw_caches.overallMisses::processor.cores.core.mmu.itb.walker         3472                       # number of overall misses (Count)
board.cache_hierarchy.iptw_caches.overallMisses::total         3472                       # number of overall misses (Count)
board.cache_hierarchy.iptw_caches.demandMissLatency::processor.cores.core.mmu.itb.walker    204175000                       # number of demand (read+write) miss ticks (Tick)
board.cache_hierarchy.iptw_caches.demandMissLatency::total    204175000                       # number of demand (read+write) miss ticks (Tick)
board.cache_hierarchy.iptw_caches.overallMissLatency::processor.cores.core.mmu.itb.walker    204175000                       # number of overall miss ticks (Tick)
board.cache_hierarchy.iptw_caches.overallMissLatency::total    204175000                       # number of overall miss ticks (Tick)
board.cache_hierarchy.iptw_caches.demandAccesses::processor.cores.core.mmu.itb.walker        31036                       # number of demand (read+write) accesses (Count)
board.cache_hierarchy.iptw_caches.demandAccesses::total        31036                       # number of demand (read+write) accesses (Count)
board.cache_hierarchy.iptw_caches.overallAccesses::processor.cores.core.mmu.itb.walker        31036                       # number of overall (read+write) accesses (Count)
board.cache_hierarchy.iptw_caches.overallAccesses::total        31036                       # number of overall (read+write) accesses (Count)
board.cache_hierarchy.iptw_caches.demandMissRate::processor.cores.core.mmu.itb.walker     0.111870                       # miss rate for demand accesses (Ratio)
board.cache_hierarchy.iptw_caches.demandMissRate::total     0.111870                       # miss rate for demand accesses (Ratio)
board.cache_hierarchy.iptw_caches.overallMissRate::processor.cores.core.mmu.itb.walker     0.111870                       # miss rate for overall accesses (Ratio)
board.cache_hierarchy.iptw_caches.overallMissRate::total     0.111870                       # miss rate for overall accesses (Ratio)
board.cache_hierarchy.iptw_caches.demandAvgMissLatency::processor.cores.core.mmu.itb.walker 58806.163594                       # average overall miss latency in ticks ((Tick/Count))
board.cache_hierarchy.iptw_caches.demandAvgMissLatency::total 58806.163594                       # average overall miss latency in ticks ((Tick/Count))
board.cache_hierarchy.iptw_caches.overallAvgMissLatency::processor.cores.core.mmu.itb.walker 58806.163594                       # average overall miss latency ((Tick/Count))
board.cache_hierarchy.iptw_caches.overallAvgMissLatency::total 58806.163594                       # average overall miss latency ((Tick/Count))
board.cache_hierarchy.iptw_caches.blockedCycles::no_mshrs            0                       # number of cycles access was blocked (Cycle)
board.cache_hierarchy.iptw_caches.blockedCycles::no_targets            0                       # number of cycles access was blocked (Cycle)
board.cache_hierarchy.iptw_caches.blockedCauses::no_mshrs            0                       # number of times access was blocked (Count)
board.cache_hierarchy.iptw_caches.blockedCauses::no_targets            0                       # number of times access was blocked (Count)
board.cache_hierarchy.iptw_caches.avgBlocked::no_mshrs          nan                       # average number of cycles each access was blocked ((Cycle/Count))
board.cache_hierarchy.iptw_caches.avgBlocked::no_targets          nan                       # average number of cycles each access was blocked ((Cycle/Count))
board.cache_hierarchy.iptw_caches.writebacks::writebacks           18                       # number of writebacks (Count)
board.cache_hierarchy.iptw_caches.writebacks::total           18                       # number of writebacks (Count)
board.cache_hierarchy.iptw_caches.demandMshrMisses::processor.cores.core.mmu.itb.walker         3472                       # number of demand (read+write) MSHR misses (Count)
board.cache_hierarchy.iptw_caches.demandMshrMisses::total         3472                       # number of demand (read+write) MSHR misses (Count)
board.cache_hierarchy.iptw_caches.overallMshrMisses::processor.cores.core.mmu.itb.walker         3472                       # number of overall MSHR misses (Count)
board.cache_hierarchy.iptw_caches.overallMshrMisses::total         3472                       # number of overall MSHR misses (Count)
board.cache_hierarchy.iptw_caches.demandMshrMissLatency::processor.cores.core.mmu.itb.walker    200703000                       # number of demand (read+write) MSHR miss ticks (Tick)
board.cache_hierarchy.iptw_caches.demandMshrMissLatency::total    200703000                       # number of demand (read+write) MSHR miss ticks (Tick)
board.cache_hierarchy.iptw_caches.overallMshrMissLatency::processor.cores.core.mmu.itb.walker    200703000                       # number of overall MSHR miss ticks (Tick)
board.cache_hierarchy.iptw_caches.overallMshrMissLatency::total    200703000                       # number of overall MSHR miss ticks (Tick)
board.cache_hierarchy.iptw_caches.demandMshrMissRate::processor.cores.core.mmu.itb.walker     0.111870                       # mshr miss ratio for demand accesses (Ratio)
board.cache_hierarchy.iptw_caches.demandMshrMissRate::total     0.111870                       # mshr miss ratio for demand accesses (Ratio)
board.cache_hierarchy.iptw_caches.overallMshrMissRate::processor.cores.core.mmu.itb.walker     0.111870                       # mshr miss ratio for overall accesses (Ratio)
board.cache_hierarchy.iptw_caches.overallMshrMissRate::total     0.111870                       # mshr miss ratio for overall accesses (Ratio)
board.cache_hierarchy.iptw_caches.demandAvgMshrMissLatency::processor.cores.core.mmu.itb.walker 57806.163594                       # average overall mshr miss latency ((Tick/Count))
board.cache_hierarchy.iptw_caches.demandAvgMshrMissLatency::total 57806.163594                       # average overall mshr miss latency ((Tick/Count))
board.cache_hierarchy.iptw_caches.overallAvgMshrMissLatency::processor.cores.core.mmu.itb.walker 57806.163594                       # average overall mshr miss latency ((Tick/Count))
board.cache_hierarchy.iptw_caches.overallAvgMshrMissLatency::total 57806.163594                       # average overall mshr miss latency ((Tick/Count))
board.cache_hierarchy.iptw_caches.replacements         2077                       # number of replacements (Count)
board.cache_hierarchy.iptw_caches.ReadReq.hits::processor.cores.core.mmu.itb.walker        27564                       # number of ReadReq hits (Count)
board.cache_hierarchy.iptw_caches.ReadReq.hits::total        27564                       # number of ReadReq hits (Count)
board.cache_hierarchy.iptw_caches.ReadReq.misses::processor.cores.core.mmu.itb.walker         3472                       # number of ReadReq misses (Count)
board.cache_hierarchy.iptw_caches.ReadReq.misses::total         3472                       # number of ReadReq misses (Count)
board.cache_hierarchy.iptw_caches.ReadReq.missLatency::processor.cores.core.mmu.itb.walker    204175000                       # number of ReadReq miss ticks (Tick)
board.cache_hierarchy.iptw_caches.ReadReq.missLatency::total    204175000                       # number of ReadReq miss ticks (Tick)
board.cache_hierarchy.iptw_caches.ReadReq.accesses::processor.cores.core.mmu.itb.walker        31036                       # number of ReadReq accesses(hits+misses) (Count)
board.cache_hierarchy.iptw_caches.ReadReq.accesses::total        31036                       # number of ReadReq accesses(hits+misses) (Count)
board.cache_hierarchy.iptw_caches.ReadReq.missRate::processor.cores.core.mmu.itb.walker     0.111870                       # miss rate for ReadReq accesses (Ratio)
board.cache_hierarchy.iptw_caches.ReadReq.missRate::total     0.111870                       # miss rate for ReadReq accesses (Ratio)
board.cache_hierarchy.iptw_caches.ReadReq.avgMissLatency::processor.cores.core.mmu.itb.walker 58806.163594                       # average ReadReq miss latency ((Tick/Count))
board.cache_hierarchy.iptw_caches.ReadReq.avgMissLatency::total 58806.163594                       # average ReadReq miss latency ((Tick/Count))
board.cache_hierarchy.iptw_caches.ReadReq.mshrMisses::processor.cores.core.mmu.itb.walker         3472                       # number of ReadReq MSHR misses (Count)
board.cache_hierarchy.iptw_caches.ReadReq.mshrMisses::total         3472                       # number of ReadReq MSHR misses (Count)
board.cache_hierarchy.iptw_caches.ReadReq.mshrMissLatency::processor.cores.core.mmu.itb.walker    200703000                       # number of ReadReq MSHR miss ticks (Tick)
board.cache_hierarchy.iptw_caches.ReadReq.mshrMissLatency::total    200703000                       # number of ReadReq MSHR miss ticks (Tick)
board.cache_hierarchy.iptw_caches.ReadReq.mshrMissRate::processor.cores.core.mmu.itb.walker     0.111870                       # mshr miss rate for ReadReq accesses (Ratio)
board.cache_hierarchy.iptw_caches.ReadReq.mshrMissRate::total     0.111870                       # mshr miss rate for ReadReq accesses (Ratio)
board.cache_hierarchy.iptw_caches.ReadReq.avgMshrMissLatency::processor.cores.core.mmu.itb.walker 57806.163594                       # average ReadReq mshr miss latency ((Tick/Count))
board.cache_hierarchy.iptw_caches.ReadReq.avgMshrMissLatency::total 57806.163594                       # average ReadReq mshr miss latency ((Tick/Count))
board.cache_hierarchy.iptw_caches.power_state.pwrStateResidencyTicks::UNDEFINED 7436149929750                       # Cumulative time (in ticks) in various power states (Tick)
board.cache_hierarchy.iptw_caches.tags.tagsInUse    60.645314                       # Average ticks per tags in use ((Tick/Count))
board.cache_hierarchy.iptw_caches.tags.totalRefs        31036                       # Total number of references to valid blocks. (Count)
board.cache_hierarchy.iptw_caches.tags.sampledRefs         3472                       # Sample count of references to valid blocks. (Count)
board.cache_hierarchy.iptw_caches.tags.avgRefs     8.938940                       # Average number of references to valid blocks. ((Count/Count))
board.cache_hierarchy.iptw_caches.tags.warmupTick 5436150247000                       # The tick when the warmup percentage was hit. (Tick)
board.cache_hierarchy.iptw_caches.tags.occupancies::processor.cores.core.mmu.itb.walker    60.645314                       # Average occupied blocks per tick, per requestor ((Count/Tick))
board.cache_hierarchy.iptw_caches.tags.avgOccs::processor.cores.core.mmu.itb.walker     0.473792                       # Average percentage of cache occupancy ((Ratio/Tick))
board.cache_hierarchy.iptw_caches.tags.avgOccs::total     0.473792                       # Average percentage of cache occupancy ((Ratio/Tick))
board.cache_hierarchy.iptw_caches.tags.occupanciesTaskId::1024           66                       # Occupied blocks per task id (Count)
board.cache_hierarchy.iptw_caches.tags.ageTaskId_1024::3            7                       # Occupied blocks per task id, per block age (Count)
board.cache_hierarchy.iptw_caches.tags.ageTaskId_1024::4           59                       # Occupied blocks per task id, per block age (Count)
board.cache_hierarchy.iptw_caches.tags.ratioOccsTaskId::1024     0.515625                       # Ratio of occupied blocks and all blocks, per task id (Ratio)
board.cache_hierarchy.iptw_caches.tags.tagAccesses       127616                       # Number of tag accesses (Count)
board.cache_hierarchy.iptw_caches.tags.dataAccesses       127616                       # Number of data accesses (Count)
board.cache_hierarchy.iptw_caches.tags.power_state.pwrStateResidencyTicks::UNDEFINED 7436149929750                       # Cumulative time (in ticks) in various power states (Tick)
board.cache_hierarchy.l1dcaches.demandHits::processor.cores.core.data   1169325228                       # number of demand (read+write) hits (Count)
board.cache_hierarchy.l1dcaches.demandHits::total   1169325228                       # number of demand (read+write) hits (Count)
board.cache_hierarchy.l1dcaches.overallHits::processor.cores.core.data   1169325228                       # number of overall hits (Count)
board.cache_hierarchy.l1dcaches.overallHits::total   1169325228                       # number of overall hits (Count)
board.cache_hierarchy.l1dcaches.demandMisses::processor.cores.core.data      9914862                       # number of demand (read+write) misses (Count)
board.cache_hierarchy.l1dcaches.demandMisses::total      9914862                       # number of demand (read+write) misses (Count)
board.cache_hierarchy.l1dcaches.overallMisses::processor.cores.core.data      9914862                       # number of overall misses (Count)
board.cache_hierarchy.l1dcaches.overallMisses::total      9914862                       # number of overall misses (Count)
board.cache_hierarchy.l1dcaches.demandMissLatency::processor.cores.core.data 726433035772                       # number of demand (read+write) miss ticks (Tick)
board.cache_hierarchy.l1dcaches.demandMissLatency::total 726433035772                       # number of demand (read+write) miss ticks (Tick)
board.cache_hierarchy.l1dcaches.overallMissLatency::processor.cores.core.data 726433035772                       # number of overall miss ticks (Tick)
board.cache_hierarchy.l1dcaches.overallMissLatency::total 726433035772                       # number of overall miss ticks (Tick)
board.cache_hierarchy.l1dcaches.demandAccesses::processor.cores.core.data   1179240090                       # number of demand (read+write) accesses (Count)
board.cache_hierarchy.l1dcaches.demandAccesses::total   1179240090                       # number of demand (read+write) accesses (Count)
board.cache_hierarchy.l1dcaches.overallAccesses::processor.cores.core.data   1179240090                       # number of overall (read+write) accesses (Count)
board.cache_hierarchy.l1dcaches.overallAccesses::total   1179240090                       # number of overall (read+write) accesses (Count)
board.cache_hierarchy.l1dcaches.demandMissRate::processor.cores.core.data     0.008408                       # miss rate for demand accesses (Ratio)
board.cache_hierarchy.l1dcaches.demandMissRate::total     0.008408                       # miss rate for demand accesses (Ratio)
board.cache_hierarchy.l1dcaches.overallMissRate::processor.cores.core.data     0.008408                       # miss rate for overall accesses (Ratio)
board.cache_hierarchy.l1dcaches.overallMissRate::total     0.008408                       # miss rate for overall accesses (Ratio)
board.cache_hierarchy.l1dcaches.demandAvgMissLatency::processor.cores.core.data 73267.084884                       # average overall miss latency in ticks ((Tick/Count))
board.cache_hierarchy.l1dcaches.demandAvgMissLatency::total 73267.084884                       # average overall miss latency in ticks ((Tick/Count))
board.cache_hierarchy.l1dcaches.overallAvgMissLatency::processor.cores.core.data 73267.084884                       # average overall miss latency ((Tick/Count))
board.cache_hierarchy.l1dcaches.overallAvgMissLatency::total 73267.084884                       # average overall miss latency ((Tick/Count))
board.cache_hierarchy.l1dcaches.blockedCycles::no_mshrs        25587                       # number of cycles access was blocked (Cycle)
board.cache_hierarchy.l1dcaches.blockedCycles::no_targets        11227                       # number of cycles access was blocked (Cycle)
board.cache_hierarchy.l1dcaches.blockedCauses::no_mshrs         5983                       # number of times access was blocked (Count)
board.cache_hierarchy.l1dcaches.blockedCauses::no_targets          264                       # number of times access was blocked (Count)
board.cache_hierarchy.l1dcaches.avgBlocked::no_mshrs     4.276617                       # average number of cycles each access was blocked ((Cycle/Count))
board.cache_hierarchy.l1dcaches.avgBlocked::no_targets    42.526515                       # average number of cycles each access was blocked ((Cycle/Count))
board.cache_hierarchy.l1dcaches.writebacks::writebacks      2789214                       # number of writebacks (Count)
board.cache_hierarchy.l1dcaches.writebacks::total      2789214                       # number of writebacks (Count)
board.cache_hierarchy.l1dcaches.demandMshrHits::processor.cores.core.data      8504555                       # number of demand (read+write) MSHR hits (Count)
board.cache_hierarchy.l1dcaches.demandMshrHits::total      8504555                       # number of demand (read+write) MSHR hits (Count)
board.cache_hierarchy.l1dcaches.overallMshrHits::processor.cores.core.data      8504555                       # number of overall MSHR hits (Count)
board.cache_hierarchy.l1dcaches.overallMshrHits::total      8504555                       # number of overall MSHR hits (Count)
board.cache_hierarchy.l1dcaches.demandMshrMisses::processor.cores.core.data      1410307                       # number of demand (read+write) MSHR misses (Count)
board.cache_hierarchy.l1dcaches.demandMshrMisses::total      1410307                       # number of demand (read+write) MSHR misses (Count)
board.cache_hierarchy.l1dcaches.overallMshrMisses::cache_hierarchy.l1dcaches.prefetcher      1687805                       # number of overall MSHR misses (Count)
board.cache_hierarchy.l1dcaches.overallMshrMisses::processor.cores.core.data      1410307                       # number of overall MSHR misses (Count)
board.cache_hierarchy.l1dcaches.overallMshrMisses::total      3098112                       # number of overall MSHR misses (Count)
board.cache_hierarchy.l1dcaches.overallMshrUncacheable::processor.cores.core.data         4912                       # number of overall MSHR uncacheable misses (Count)
board.cache_hierarchy.l1dcaches.overallMshrUncacheable::total         4912                       # number of overall MSHR uncacheable misses (Count)
board.cache_hierarchy.l1dcaches.demandMshrMissLatency::processor.cores.core.data  96061809961                       # number of demand (read+write) MSHR miss ticks (Tick)
board.cache_hierarchy.l1dcaches.demandMshrMissLatency::total  96061809961                       # number of demand (read+write) MSHR miss ticks (Tick)
board.cache_hierarchy.l1dcaches.overallMshrMissLatency::cache_hierarchy.l1dcaches.prefetcher 178671967158                       # number of overall MSHR miss ticks (Tick)
board.cache_hierarchy.l1dcaches.overallMshrMissLatency::processor.cores.core.data  96061809961                       # number of overall MSHR miss ticks (Tick)
board.cache_hierarchy.l1dcaches.overallMshrMissLatency::total 274733777119                       # number of overall MSHR miss ticks (Tick)
board.cache_hierarchy.l1dcaches.overallMshrUncacheableLatency::processor.cores.core.data    399352000                       # number of overall MSHR uncacheable ticks (Tick)
board.cache_hierarchy.l1dcaches.overallMshrUncacheableLatency::total    399352000                       # number of overall MSHR uncacheable ticks (Tick)
board.cache_hierarchy.l1dcaches.demandMshrMissRate::processor.cores.core.data     0.001196                       # mshr miss ratio for demand accesses (Ratio)
board.cache_hierarchy.l1dcaches.demandMshrMissRate::total     0.001196                       # mshr miss ratio for demand accesses (Ratio)
board.cache_hierarchy.l1dcaches.overallMshrMissRate::cache_hierarchy.l1dcaches.prefetcher          inf                       # mshr miss ratio for overall accesses (Ratio)
board.cache_hierarchy.l1dcaches.overallMshrMissRate::processor.cores.core.data     0.001196                       # mshr miss ratio for overall accesses (Ratio)
board.cache_hierarchy.l1dcaches.overallMshrMissRate::total     0.002627                       # mshr miss ratio for overall accesses (Ratio)
board.cache_hierarchy.l1dcaches.demandAvgMshrMissLatency::processor.cores.core.data 68114.112715                       # average overall mshr miss latency ((Tick/Count))
board.cache_hierarchy.l1dcaches.demandAvgMshrMissLatency::total 68114.112715                       # average overall mshr miss latency ((Tick/Count))
board.cache_hierarchy.l1dcaches.overallAvgMshrMissLatency::cache_hierarchy.l1dcaches.prefetcher 105860.550927                       # average overall mshr miss latency ((Tick/Count))
board.cache_hierarchy.l1dcaches.overallAvgMshrMissLatency::processor.cores.core.data 68114.112715                       # average overall mshr miss latency ((Tick/Count))
board.cache_hierarchy.l1dcaches.overallAvgMshrMissLatency::total 88677.806716                       # average overall mshr miss latency ((Tick/Count))
board.cache_hierarchy.l1dcaches.overallAvgMshrUncacheableLatency::processor.cores.core.data 81301.302932                       # average overall mshr uncacheable latency ((Tick/Count))
board.cache_hierarchy.l1dcaches.overallAvgMshrUncacheableLatency::total 81301.302932                       # average overall mshr uncacheable latency ((Tick/Count))
board.cache_hierarchy.l1dcaches.replacements      3088992                       # number of replacements (Count)
board.cache_hierarchy.l1dcaches.CleanInvalidReq.missLatency::processor.cores.core.data        75000                       # number of CleanInvalidReq miss ticks (Tick)
board.cache_hierarchy.l1dcaches.CleanInvalidReq.missLatency::total        75000                       # number of CleanInvalidReq miss ticks (Tick)
board.cache_hierarchy.l1dcaches.CleanInvalidReq.avgMissLatency::processor.cores.core.data          inf                       # average CleanInvalidReq miss latency ((Tick/Count))
board.cache_hierarchy.l1dcaches.CleanInvalidReq.avgMissLatency::total          inf                       # average CleanInvalidReq miss latency ((Tick/Count))
board.cache_hierarchy.l1dcaches.CleanInvalidReq.mshrMisses::processor.cores.core.data            3                       # number of CleanInvalidReq MSHR misses (Count)
board.cache_hierarchy.l1dcaches.CleanInvalidReq.mshrMisses::total            3                       # number of CleanInvalidReq MSHR misses (Count)
board.cache_hierarchy.l1dcaches.CleanInvalidReq.mshrMissLatency::processor.cores.core.data        72000                       # number of CleanInvalidReq MSHR miss ticks (Tick)
board.cache_hierarchy.l1dcaches.CleanInvalidReq.mshrMissLatency::total        72000                       # number of CleanInvalidReq MSHR miss ticks (Tick)
board.cache_hierarchy.l1dcaches.CleanInvalidReq.mshrMissRate::processor.cores.core.data          inf                       # mshr miss rate for CleanInvalidReq accesses (Ratio)
board.cache_hierarchy.l1dcaches.CleanInvalidReq.mshrMissRate::total          inf                       # mshr miss rate for CleanInvalidReq accesses (Ratio)
board.cache_hierarchy.l1dcaches.CleanInvalidReq.avgMshrMissLatency::processor.cores.core.data        24000                       # average CleanInvalidReq mshr miss latency ((Tick/Count))
board.cache_hierarchy.l1dcaches.CleanInvalidReq.avgMshrMissLatency::total        24000                       # average CleanInvalidReq mshr miss latency ((Tick/Count))
board.cache_hierarchy.l1dcaches.HardPFReq.mshrMisses::cache_hierarchy.l1dcaches.prefetcher      1687805                       # number of HardPFReq MSHR misses (Count)
board.cache_hierarchy.l1dcaches.HardPFReq.mshrMisses::total      1687805                       # number of HardPFReq MSHR misses (Count)
board.cache_hierarchy.l1dcaches.HardPFReq.mshrMissLatency::cache_hierarchy.l1dcaches.prefetcher 178671967158                       # number of HardPFReq MSHR miss ticks (Tick)
board.cache_hierarchy.l1dcaches.HardPFReq.mshrMissLatency::total 178671967158                       # number of HardPFReq MSHR miss ticks (Tick)
board.cache_hierarchy.l1dcaches.HardPFReq.mshrMissRate::cache_hierarchy.l1dcaches.prefetcher          inf                       # mshr miss rate for HardPFReq accesses (Ratio)
board.cache_hierarchy.l1dcaches.HardPFReq.mshrMissRate::total          inf                       # mshr miss rate for HardPFReq accesses (Ratio)
board.cache_hierarchy.l1dcaches.HardPFReq.avgMshrMissLatency::cache_hierarchy.l1dcaches.prefetcher 105860.550927                       # average HardPFReq mshr miss latency ((Tick/Count))
board.cache_hierarchy.l1dcaches.HardPFReq.avgMshrMissLatency::total 105860.550927                       # average HardPFReq mshr miss latency ((Tick/Count))
board.cache_hierarchy.l1dcaches.LoadLockedReq.hits::processor.cores.core.data        18005                       # number of LoadLockedReq hits (Count)
board.cache_hierarchy.l1dcaches.LoadLockedReq.hits::total        18005                       # number of LoadLockedReq hits (Count)
board.cache_hierarchy.l1dcaches.LoadLockedReq.misses::processor.cores.core.data         8235                       # number of LoadLockedReq misses (Count)
board.cache_hierarchy.l1dcaches.LoadLockedReq.misses::total         8235                       # number of LoadLockedReq misses (Count)
board.cache_hierarchy.l1dcaches.LoadLockedReq.missLatency::processor.cores.core.data    302534000                       # number of LoadLockedReq miss ticks (Tick)
board.cache_hierarchy.l1dcaches.LoadLockedReq.missLatency::total    302534000                       # number of LoadLockedReq miss ticks (Tick)
board.cache_hierarchy.l1dcaches.LoadLockedReq.accesses::processor.cores.core.data        26240                       # number of LoadLockedReq accesses(hits+misses) (Count)
board.cache_hierarchy.l1dcaches.LoadLockedReq.accesses::total        26240                       # number of LoadLockedReq accesses(hits+misses) (Count)
board.cache_hierarchy.l1dcaches.LoadLockedReq.missRate::processor.cores.core.data     0.313834                       # miss rate for LoadLockedReq accesses (Ratio)
board.cache_hierarchy.l1dcaches.LoadLockedReq.missRate::total     0.313834                       # miss rate for LoadLockedReq accesses (Ratio)
board.cache_hierarchy.l1dcaches.LoadLockedReq.avgMissLatency::processor.cores.core.data 36737.583485                       # average LoadLockedReq miss latency ((Tick/Count))
board.cache_hierarchy.l1dcaches.LoadLockedReq.avgMissLatency::total 36737.583485                       # average LoadLockedReq miss latency ((Tick/Count))
board.cache_hierarchy.l1dcaches.LoadLockedReq.mshrHits::processor.cores.core.data         1886                       # number of LoadLockedReq MSHR hits (Count)
board.cache_hierarchy.l1dcaches.LoadLockedReq.mshrHits::total         1886                       # number of LoadLockedReq MSHR hits (Count)
board.cache_hierarchy.l1dcaches.LoadLockedReq.mshrMisses::processor.cores.core.data         6349                       # number of LoadLockedReq MSHR misses (Count)
board.cache_hierarchy.l1dcaches.LoadLockedReq.mshrMisses::total         6349                       # number of LoadLockedReq MSHR misses (Count)
board.cache_hierarchy.l1dcaches.LoadLockedReq.mshrMissLatency::processor.cores.core.data    229420000                       # number of LoadLockedReq MSHR miss ticks (Tick)
board.cache_hierarchy.l1dcaches.LoadLockedReq.mshrMissLatency::total    229420000                       # number of LoadLockedReq MSHR miss ticks (Tick)
board.cache_hierarchy.l1dcaches.LoadLockedReq.mshrMissRate::processor.cores.core.data     0.241959                       # mshr miss rate for LoadLockedReq accesses (Ratio)
board.cache_hierarchy.l1dcaches.LoadLockedReq.mshrMissRate::total     0.241959                       # mshr miss rate for LoadLockedReq accesses (Ratio)
board.cache_hierarchy.l1dcaches.LoadLockedReq.avgMshrMissLatency::processor.cores.core.data 36134.824382                       # average LoadLockedReq mshr miss latency ((Tick/Count))
board.cache_hierarchy.l1dcaches.LoadLockedReq.avgMshrMissLatency::total 36134.824382                       # average LoadLockedReq mshr miss latency ((Tick/Count))
board.cache_hierarchy.l1dcaches.ReadReq.hits::processor.cores.core.data    773827794                       # number of ReadReq hits (Count)
board.cache_hierarchy.l1dcaches.ReadReq.hits::total    773827794                       # number of ReadReq hits (Count)
board.cache_hierarchy.l1dcaches.ReadReq.misses::processor.cores.core.data      1260430                       # number of ReadReq misses (Count)
board.cache_hierarchy.l1dcaches.ReadReq.misses::total      1260430                       # number of ReadReq misses (Count)
board.cache_hierarchy.l1dcaches.ReadReq.missLatency::processor.cores.core.data  59809739000                       # number of ReadReq miss ticks (Tick)
board.cache_hierarchy.l1dcaches.ReadReq.missLatency::total  59809739000                       # number of ReadReq miss ticks (Tick)
board.cache_hierarchy.l1dcaches.ReadReq.accesses::processor.cores.core.data    775088224                       # number of ReadReq accesses(hits+misses) (Count)
board.cache_hierarchy.l1dcaches.ReadReq.accesses::total    775088224                       # number of ReadReq accesses(hits+misses) (Count)
board.cache_hierarchy.l1dcaches.ReadReq.missRate::processor.cores.core.data     0.001626                       # miss rate for ReadReq accesses (Ratio)
board.cache_hierarchy.l1dcaches.ReadReq.missRate::total     0.001626                       # miss rate for ReadReq accesses (Ratio)
board.cache_hierarchy.l1dcaches.ReadReq.avgMissLatency::processor.cores.core.data 47451.852939                       # average ReadReq miss latency ((Tick/Count))
board.cache_hierarchy.l1dcaches.ReadReq.avgMissLatency::total 47451.852939                       # average ReadReq miss latency ((Tick/Count))
board.cache_hierarchy.l1dcaches.ReadReq.mshrHits::processor.cores.core.data       912849                       # number of ReadReq MSHR hits (Count)
board.cache_hierarchy.l1dcaches.ReadReq.mshrHits::total       912849                       # number of ReadReq MSHR hits (Count)
board.cache_hierarchy.l1dcaches.ReadReq.mshrMisses::processor.cores.core.data       347581                       # number of ReadReq MSHR misses (Count)
board.cache_hierarchy.l1dcaches.ReadReq.mshrMisses::total       347581                       # number of ReadReq MSHR misses (Count)
board.cache_hierarchy.l1dcaches.ReadReq.mshrUncacheable::processor.cores.core.data         2961                       # number of ReadReq MSHR uncacheable (Count)
board.cache_hierarchy.l1dcaches.ReadReq.mshrUncacheable::total         2961                       # number of ReadReq MSHR uncacheable (Count)
board.cache_hierarchy.l1dcaches.ReadReq.mshrMissLatency::processor.cores.core.data  15618195000                       # number of ReadReq MSHR miss ticks (Tick)
board.cache_hierarchy.l1dcaches.ReadReq.mshrMissLatency::total  15618195000                       # number of ReadReq MSHR miss ticks (Tick)
board.cache_hierarchy.l1dcaches.ReadReq.mshrUncacheableLatency::processor.cores.core.data    399352000                       # number of ReadReq MSHR uncacheable ticks (Tick)
board.cache_hierarchy.l1dcaches.ReadReq.mshrUncacheableLatency::total    399352000                       # number of ReadReq MSHR uncacheable ticks (Tick)
board.cache_hierarchy.l1dcaches.ReadReq.mshrMissRate::processor.cores.core.data     0.000448                       # mshr miss rate for ReadReq accesses (Ratio)
board.cache_hierarchy.l1dcaches.ReadReq.mshrMissRate::total     0.000448                       # mshr miss rate for ReadReq accesses (Ratio)
board.cache_hierarchy.l1dcaches.ReadReq.avgMshrMissLatency::processor.cores.core.data 44933.972225                       # average ReadReq mshr miss latency ((Tick/Count))
board.cache_hierarchy.l1dcaches.ReadReq.avgMshrMissLatency::total 44933.972225                       # average ReadReq mshr miss latency ((Tick/Count))
board.cache_hierarchy.l1dcaches.ReadReq.avgMshrUncacheableLatency::processor.cores.core.data 134870.651807                       # average ReadReq mshr uncacheable latency ((Tick/Count))
board.cache_hierarchy.l1dcaches.ReadReq.avgMshrUncacheableLatency::total 134870.651807                       # average ReadReq mshr uncacheable latency ((Tick/Count))
board.cache_hierarchy.l1dcaches.StoreCondReq.hits::processor.cores.core.data        25112                       # number of StoreCondReq hits (Count)
board.cache_hierarchy.l1dcaches.StoreCondReq.hits::total        25112                       # number of StoreCondReq hits (Count)
board.cache_hierarchy.l1dcaches.StoreCondReq.accesses::processor.cores.core.data        25112                       # number of StoreCondReq accesses(hits+misses) (Count)
board.cache_hierarchy.l1dcaches.StoreCondReq.accesses::total        25112                       # number of StoreCondReq accesses(hits+misses) (Count)
board.cache_hierarchy.l1dcaches.SwapReq.hits::processor.cores.core.data       406414                       # number of SwapReq hits (Count)
board.cache_hierarchy.l1dcaches.SwapReq.hits::total       406414                       # number of SwapReq hits (Count)
board.cache_hierarchy.l1dcaches.SwapReq.misses::processor.cores.core.data        27278                       # number of SwapReq misses (Count)
board.cache_hierarchy.l1dcaches.SwapReq.misses::total        27278                       # number of SwapReq misses (Count)
board.cache_hierarchy.l1dcaches.SwapReq.missLatency::processor.cores.core.data    497622000                       # number of SwapReq miss ticks (Tick)
board.cache_hierarchy.l1dcaches.SwapReq.missLatency::total    497622000                       # number of SwapReq miss ticks (Tick)
board.cache_hierarchy.l1dcaches.SwapReq.accesses::processor.cores.core.data       433692                       # number of SwapReq accesses(hits+misses) (Count)
board.cache_hierarchy.l1dcaches.SwapReq.accesses::total       433692                       # number of SwapReq accesses(hits+misses) (Count)
board.cache_hierarchy.l1dcaches.SwapReq.missRate::processor.cores.core.data     0.062897                       # miss rate for SwapReq accesses (Ratio)
board.cache_hierarchy.l1dcaches.SwapReq.missRate::total     0.062897                       # miss rate for SwapReq accesses (Ratio)
board.cache_hierarchy.l1dcaches.SwapReq.avgMissLatency::processor.cores.core.data 18242.613095                       # average SwapReq miss latency ((Tick/Count))
board.cache_hierarchy.l1dcaches.SwapReq.avgMissLatency::total 18242.613095                       # average SwapReq miss latency ((Tick/Count))
board.cache_hierarchy.l1dcaches.SwapReq.mshrHits::processor.cores.core.data           36                       # number of SwapReq MSHR hits (Count)
board.cache_hierarchy.l1dcaches.SwapReq.mshrHits::total           36                       # number of SwapReq MSHR hits (Count)
board.cache_hierarchy.l1dcaches.SwapReq.mshrMisses::processor.cores.core.data        27242                       # number of SwapReq MSHR misses (Count)
board.cache_hierarchy.l1dcaches.SwapReq.mshrMisses::total        27242                       # number of SwapReq MSHR misses (Count)
board.cache_hierarchy.l1dcaches.SwapReq.mshrUncacheable::processor.cores.core.data          610                       # number of SwapReq MSHR uncacheable (Count)
board.cache_hierarchy.l1dcaches.SwapReq.mshrUncacheable::total          610                       # number of SwapReq MSHR uncacheable (Count)
board.cache_hierarchy.l1dcaches.SwapReq.mshrMissLatency::processor.cores.core.data    469237000                       # number of SwapReq MSHR miss ticks (Tick)
board.cache_hierarchy.l1dcaches.SwapReq.mshrMissLatency::total    469237000                       # number of SwapReq MSHR miss ticks (Tick)
board.cache_hierarchy.l1dcaches.SwapReq.mshrMissRate::processor.cores.core.data     0.062814                       # mshr miss rate for SwapReq accesses (Ratio)
board.cache_hierarchy.l1dcaches.SwapReq.mshrMissRate::total     0.062814                       # mshr miss rate for SwapReq accesses (Ratio)
board.cache_hierarchy.l1dcaches.SwapReq.avgMshrMissLatency::processor.cores.core.data 17224.763233                       # average SwapReq mshr miss latency ((Tick/Count))
board.cache_hierarchy.l1dcaches.SwapReq.avgMshrMissLatency::total 17224.763233                       # average SwapReq mshr miss latency ((Tick/Count))
board.cache_hierarchy.l1dcaches.WriteReq.hits::processor.cores.core.data    395497434                       # number of WriteReq hits (Count)
board.cache_hierarchy.l1dcaches.WriteReq.hits::total    395497434                       # number of WriteReq hits (Count)
board.cache_hierarchy.l1dcaches.WriteReq.misses::processor.cores.core.data      8654432                       # number of WriteReq misses (Count)
board.cache_hierarchy.l1dcaches.WriteReq.misses::total      8654432                       # number of WriteReq misses (Count)
board.cache_hierarchy.l1dcaches.WriteReq.missLatency::processor.cores.core.data 666623296772                       # number of WriteReq miss ticks (Tick)
board.cache_hierarchy.l1dcaches.WriteReq.missLatency::total 666623296772                       # number of WriteReq miss ticks (Tick)
board.cache_hierarchy.l1dcaches.WriteReq.accesses::processor.cores.core.data    404151866                       # number of WriteReq accesses(hits+misses) (Count)
board.cache_hierarchy.l1dcaches.WriteReq.accesses::total    404151866                       # number of WriteReq accesses(hits+misses) (Count)
board.cache_hierarchy.l1dcaches.WriteReq.missRate::processor.cores.core.data     0.021414                       # miss rate for WriteReq accesses (Ratio)
board.cache_hierarchy.l1dcaches.WriteReq.missRate::total     0.021414                       # miss rate for WriteReq accesses (Ratio)
board.cache_hierarchy.l1dcaches.WriteReq.avgMissLatency::processor.cores.core.data 77026.810861                       # average WriteReq miss latency ((Tick/Count))
board.cache_hierarchy.l1dcaches.WriteReq.avgMissLatency::total 77026.810861                       # average WriteReq miss latency ((Tick/Count))
board.cache_hierarchy.l1dcaches.WriteReq.mshrHits::processor.cores.core.data      7591706                       # number of WriteReq MSHR hits (Count)
board.cache_hierarchy.l1dcaches.WriteReq.mshrHits::total      7591706                       # number of WriteReq MSHR hits (Count)
board.cache_hierarchy.l1dcaches.WriteReq.mshrMisses::processor.cores.core.data      1062726                       # number of WriteReq MSHR misses (Count)
board.cache_hierarchy.l1dcaches.WriteReq.mshrMisses::total      1062726                       # number of WriteReq MSHR misses (Count)
board.cache_hierarchy.l1dcaches.WriteReq.mshrUncacheable::processor.cores.core.data         1951                       # number of WriteReq MSHR uncacheable (Count)
board.cache_hierarchy.l1dcaches.WriteReq.mshrUncacheable::total         1951                       # number of WriteReq MSHR uncacheable (Count)
board.cache_hierarchy.l1dcaches.WriteReq.mshrMissLatency::processor.cores.core.data  80443614961                       # number of WriteReq MSHR miss ticks (Tick)
board.cache_hierarchy.l1dcaches.WriteReq.mshrMissLatency::total  80443614961                       # number of WriteReq MSHR miss ticks (Tick)
board.cache_hierarchy.l1dcaches.WriteReq.mshrMissRate::processor.cores.core.data     0.002630                       # mshr miss rate for WriteReq accesses (Ratio)
board.cache_hierarchy.l1dcaches.WriteReq.mshrMissRate::total     0.002630                       # mshr miss rate for WriteReq accesses (Ratio)
board.cache_hierarchy.l1dcaches.WriteReq.avgMshrMissLatency::processor.cores.core.data 75695.536724                       # average WriteReq mshr miss latency ((Tick/Count))
board.cache_hierarchy.l1dcaches.WriteReq.avgMshrMissLatency::total 75695.536724                       # average WriteReq mshr miss latency ((Tick/Count))
board.cache_hierarchy.l1dcaches.power_state.pwrStateResidencyTicks::UNDEFINED 7436149929750                       # Cumulative time (in ticks) in various power states (Tick)
board.cache_hierarchy.l1dcaches.prefetcher.demandMshrMisses      1410307                       # demands not covered by prefetchs (Count)
board.cache_hierarchy.l1dcaches.prefetcher.pfIssued      3147251                       # number of hwpf issued (Count)
board.cache_hierarchy.l1dcaches.prefetcher.pfUnused        44209                       # number of HardPF blocks evicted w/o reference (Count)
board.cache_hierarchy.l1dcaches.prefetcher.pfUseful      1528179                       # number of useful prefetch (Count)
board.cache_hierarchy.l1dcaches.prefetcher.pfUsefulButMiss          800                       # number of hit on prefetch but cache block is not in an usable state (Count)
board.cache_hierarchy.l1dcaches.prefetcher.accuracy     0.485560                       # accuracy of the prefetcher (Count)
board.cache_hierarchy.l1dcaches.prefetcher.coverage     0.520057                       # coverage brought by this prefetcher (Count)
board.cache_hierarchy.l1dcaches.prefetcher.pfHitInCache       618811                       # number of prefetches hitting in cache (Count)
board.cache_hierarchy.l1dcaches.prefetcher.pfHitInMSHR       840635                       # number of prefetches hitting in a MSHR (Count)
board.cache_hierarchy.l1dcaches.prefetcher.pfHitInWB            0                       # number of prefetches hit in the Write Buffer (Count)
board.cache_hierarchy.l1dcaches.prefetcher.pfLate      1459446                       # number of late prefetches (hitting in cache, MSHR or WB) (Count)
board.cache_hierarchy.l1dcaches.prefetcher.pfIdentified      7411466                       # number of prefetch candidates identified (Count)
board.cache_hierarchy.l1dcaches.prefetcher.pfBufferHit      3064194                       # number of redundant prefetches already in prefetch queue (Count)
board.cache_hierarchy.l1dcaches.prefetcher.pfInCache            0                       # number of redundant prefetches already in cache/mshr dropped (Count)
board.cache_hierarchy.l1dcaches.prefetcher.pfRemovedDemand         5408                       # number of prefetches dropped due to a demand for the same address (Count)
board.cache_hierarchy.l1dcaches.prefetcher.pfRemovedFull            0                       # number of prefetches dropped due to prefetch queue size (Count)
board.cache_hierarchy.l1dcaches.prefetcher.pfSpanPage      2971814                       # number of prefetches that crossed the page (Count)
board.cache_hierarchy.l1dcaches.prefetcher.pfUsefulSpanPage          353                       # number of prefetches that is useful and crossed the page (Count)
board.cache_hierarchy.l1dcaches.prefetcher.power_state.pwrStateResidencyTicks::UNDEFINED 7436149929750                       # Cumulative time (in ticks) in various power states (Tick)
board.cache_hierarchy.l1dcaches.tags.tagsInUse   511.990546                       # Average ticks per tags in use ((Tick/Count))
board.cache_hierarchy.l1dcaches.tags.totalRefs   1172906791                       # Total number of references to valid blocks. (Count)
board.cache_hierarchy.l1dcaches.tags.sampledRefs      3089620                       # Sample count of references to valid blocks. (Count)
board.cache_hierarchy.l1dcaches.tags.avgRefs   379.628171                       # Average number of references to valid blocks. ((Count/Count))
board.cache_hierarchy.l1dcaches.tags.warmupTick 5436150177000                       # The tick when the warmup percentage was hit. (Tick)
board.cache_hierarchy.l1dcaches.tags.occupancies::cache_hierarchy.l1dcaches.prefetcher   197.597776                       # Average occupied blocks per tick, per requestor ((Count/Tick))
board.cache_hierarchy.l1dcaches.tags.occupancies::processor.cores.core.data   314.392771                       # Average occupied blocks per tick, per requestor ((Count/Tick))
board.cache_hierarchy.l1dcaches.tags.avgOccs::cache_hierarchy.l1dcaches.prefetcher     0.385933                       # Average percentage of cache occupancy ((Ratio/Tick))
board.cache_hierarchy.l1dcaches.tags.avgOccs::processor.cores.core.data     0.614048                       # Average percentage of cache occupancy ((Ratio/Tick))
board.cache_hierarchy.l1dcaches.tags.avgOccs::total     0.999982                       # Average percentage of cache occupancy ((Ratio/Tick))
board.cache_hierarchy.l1dcaches.tags.occupanciesTaskId::1022          281                       # Occupied blocks per task id (Count)
board.cache_hierarchy.l1dcaches.tags.occupanciesTaskId::1024          231                       # Occupied blocks per task id (Count)
board.cache_hierarchy.l1dcaches.tags.ageTaskId_1022::0           39                       # Occupied blocks per task id, per block age (Count)
board.cache_hierarchy.l1dcaches.tags.ageTaskId_1022::1          199                       # Occupied blocks per task id, per block age (Count)
board.cache_hierarchy.l1dcaches.tags.ageTaskId_1022::2           43                       # Occupied blocks per task id, per block age (Count)
board.cache_hierarchy.l1dcaches.tags.ageTaskId_1024::0           28                       # Occupied blocks per task id, per block age (Count)
board.cache_hierarchy.l1dcaches.tags.ageTaskId_1024::1          117                       # Occupied blocks per task id, per block age (Count)
board.cache_hierarchy.l1dcaches.tags.ageTaskId_1024::2           29                       # Occupied blocks per task id, per block age (Count)
board.cache_hierarchy.l1dcaches.tags.ageTaskId_1024::3           57                       # Occupied blocks per task id, per block age (Count)
board.cache_hierarchy.l1dcaches.tags.ratioOccsTaskId::1022     0.548828                       # Ratio of occupied blocks and all blocks, per task id (Ratio)
board.cache_hierarchy.l1dcaches.tags.ratioOccsTaskId::1024     0.451172                       # Ratio of occupied blocks and all blocks, per task id (Ratio)
board.cache_hierarchy.l1dcaches.tags.tagAccesses   9440890716                       # Number of tag accesses (Count)
board.cache_hierarchy.l1dcaches.tags.dataAccesses   9440890716                       # Number of data accesses (Count)
board.cache_hierarchy.l1dcaches.tags.power_state.pwrStateResidencyTicks::UNDEFINED 7436149929750                       # Cumulative time (in ticks) in various power states (Tick)
board.cache_hierarchy.l1icaches.demandHits::processor.cores.core.inst    490029737                       # number of demand (read+write) hits (Count)
board.cache_hierarchy.l1icaches.demandHits::total    490029737                       # number of demand (read+write) hits (Count)
board.cache_hierarchy.l1icaches.overallHits::processor.cores.core.inst    490029737                       # number of overall hits (Count)
board.cache_hierarchy.l1icaches.overallHits::total    490029737                       # number of overall hits (Count)
board.cache_hierarchy.l1icaches.demandMisses::processor.cores.core.inst       376600                       # number of demand (read+write) misses (Count)
board.cache_hierarchy.l1icaches.demandMisses::total       376600                       # number of demand (read+write) misses (Count)
board.cache_hierarchy.l1icaches.overallMisses::processor.cores.core.inst       376600                       # number of overall misses (Count)
board.cache_hierarchy.l1icaches.overallMisses::total       376600                       # number of overall misses (Count)
board.cache_hierarchy.l1icaches.demandMissLatency::processor.cores.core.inst  14623451000                       # number of demand (read+write) miss ticks (Tick)
board.cache_hierarchy.l1icaches.demandMissLatency::total  14623451000                       # number of demand (read+write) miss ticks (Tick)
board.cache_hierarchy.l1icaches.overallMissLatency::processor.cores.core.inst  14623451000                       # number of overall miss ticks (Tick)
board.cache_hierarchy.l1icaches.overallMissLatency::total  14623451000                       # number of overall miss ticks (Tick)
board.cache_hierarchy.l1icaches.demandAccesses::processor.cores.core.inst    490406337                       # number of demand (read+write) accesses (Count)
board.cache_hierarchy.l1icaches.demandAccesses::total    490406337                       # number of demand (read+write) accesses (Count)
board.cache_hierarchy.l1icaches.overallAccesses::processor.cores.core.inst    490406337                       # number of overall (read+write) accesses (Count)
board.cache_hierarchy.l1icaches.overallAccesses::total    490406337                       # number of overall (read+write) accesses (Count)
board.cache_hierarchy.l1icaches.demandMissRate::processor.cores.core.inst     0.000768                       # miss rate for demand accesses (Ratio)
board.cache_hierarchy.l1icaches.demandMissRate::total     0.000768                       # miss rate for demand accesses (Ratio)
board.cache_hierarchy.l1icaches.overallMissRate::processor.cores.core.inst     0.000768                       # miss rate for overall accesses (Ratio)
board.cache_hierarchy.l1icaches.overallMissRate::total     0.000768                       # miss rate for overall accesses (Ratio)
board.cache_hierarchy.l1icaches.demandAvgMissLatency::processor.cores.core.inst 38830.193840                       # average overall miss latency in ticks ((Tick/Count))
board.cache_hierarchy.l1icaches.demandAvgMissLatency::total 38830.193840                       # average overall miss latency in ticks ((Tick/Count))
board.cache_hierarchy.l1icaches.overallAvgMissLatency::processor.cores.core.inst 38830.193840                       # average overall miss latency ((Tick/Count))
board.cache_hierarchy.l1icaches.overallAvgMissLatency::total 38830.193840                       # average overall miss latency ((Tick/Count))
board.cache_hierarchy.l1icaches.blockedCycles::no_mshrs            0                       # number of cycles access was blocked (Cycle)
board.cache_hierarchy.l1icaches.blockedCycles::no_targets            0                       # number of cycles access was blocked (Cycle)
board.cache_hierarchy.l1icaches.blockedCauses::no_mshrs            0                       # number of times access was blocked (Count)
board.cache_hierarchy.l1icaches.blockedCauses::no_targets            0                       # number of times access was blocked (Count)
board.cache_hierarchy.l1icaches.avgBlocked::no_mshrs          nan                       # average number of cycles each access was blocked ((Cycle/Count))
board.cache_hierarchy.l1icaches.avgBlocked::no_targets          nan                       # average number of cycles each access was blocked ((Cycle/Count))
board.cache_hierarchy.l1icaches.writebacks::writebacks            1                       # number of writebacks (Count)
board.cache_hierarchy.l1icaches.writebacks::total            1                       # number of writebacks (Count)
board.cache_hierarchy.l1icaches.demandMshrHits::processor.cores.core.inst        53766                       # number of demand (read+write) MSHR hits (Count)
board.cache_hierarchy.l1icaches.demandMshrHits::total        53766                       # number of demand (read+write) MSHR hits (Count)
board.cache_hierarchy.l1icaches.overallMshrHits::processor.cores.core.inst        53766                       # number of overall MSHR hits (Count)
board.cache_hierarchy.l1icaches.overallMshrHits::total        53766                       # number of overall MSHR hits (Count)
board.cache_hierarchy.l1icaches.demandMshrMisses::processor.cores.core.inst       322834                       # number of demand (read+write) MSHR misses (Count)
board.cache_hierarchy.l1icaches.demandMshrMisses::total       322834                       # number of demand (read+write) MSHR misses (Count)
board.cache_hierarchy.l1icaches.overallMshrMisses::processor.cores.core.inst       322834                       # number of overall MSHR misses (Count)
board.cache_hierarchy.l1icaches.overallMshrMisses::total       322834                       # number of overall MSHR misses (Count)
board.cache_hierarchy.l1icaches.demandMshrMissLatency::processor.cores.core.inst  12187973000                       # number of demand (read+write) MSHR miss ticks (Tick)
board.cache_hierarchy.l1icaches.demandMshrMissLatency::total  12187973000                       # number of demand (read+write) MSHR miss ticks (Tick)
board.cache_hierarchy.l1icaches.overallMshrMissLatency::processor.cores.core.inst  12187973000                       # number of overall MSHR miss ticks (Tick)
board.cache_hierarchy.l1icaches.overallMshrMissLatency::total  12187973000                       # number of overall MSHR miss ticks (Tick)
board.cache_hierarchy.l1icaches.demandMshrMissRate::processor.cores.core.inst     0.000658                       # mshr miss ratio for demand accesses (Ratio)
board.cache_hierarchy.l1icaches.demandMshrMissRate::total     0.000658                       # mshr miss ratio for demand accesses (Ratio)
board.cache_hierarchy.l1icaches.overallMshrMissRate::processor.cores.core.inst     0.000658                       # mshr miss ratio for overall accesses (Ratio)
board.cache_hierarchy.l1icaches.overallMshrMissRate::total     0.000658                       # mshr miss ratio for overall accesses (Ratio)
board.cache_hierarchy.l1icaches.demandAvgMshrMissLatency::processor.cores.core.inst 37753.065043                       # average overall mshr miss latency ((Tick/Count))
board.cache_hierarchy.l1icaches.demandAvgMshrMissLatency::total 37753.065043                       # average overall mshr miss latency ((Tick/Count))
board.cache_hierarchy.l1icaches.overallAvgMshrMissLatency::processor.cores.core.inst 37753.065043                       # average overall mshr miss latency ((Tick/Count))
board.cache_hierarchy.l1icaches.overallAvgMshrMissLatency::total 37753.065043                       # average overall mshr miss latency ((Tick/Count))
board.cache_hierarchy.l1icaches.replacements       322322                       # number of replacements (Count)
board.cache_hierarchy.l1icaches.ReadReq.hits::processor.cores.core.inst    490029737                       # number of ReadReq hits (Count)
board.cache_hierarchy.l1icaches.ReadReq.hits::total    490029737                       # number of ReadReq hits (Count)
board.cache_hierarchy.l1icaches.ReadReq.misses::processor.cores.core.inst       376600                       # number of ReadReq misses (Count)
board.cache_hierarchy.l1icaches.ReadReq.misses::total       376600                       # number of ReadReq misses (Count)
board.cache_hierarchy.l1icaches.ReadReq.missLatency::processor.cores.core.inst  14623451000                       # number of ReadReq miss ticks (Tick)
board.cache_hierarchy.l1icaches.ReadReq.missLatency::total  14623451000                       # number of ReadReq miss ticks (Tick)
board.cache_hierarchy.l1icaches.ReadReq.accesses::processor.cores.core.inst    490406337                       # number of ReadReq accesses(hits+misses) (Count)
board.cache_hierarchy.l1icaches.ReadReq.accesses::total    490406337                       # number of ReadReq accesses(hits+misses) (Count)
board.cache_hierarchy.l1icaches.ReadReq.missRate::processor.cores.core.inst     0.000768                       # miss rate for ReadReq accesses (Ratio)
board.cache_hierarchy.l1icaches.ReadReq.missRate::total     0.000768                       # miss rate for ReadReq accesses (Ratio)
board.cache_hierarchy.l1icaches.ReadReq.avgMissLatency::processor.cores.core.inst 38830.193840                       # average ReadReq miss latency ((Tick/Count))
board.cache_hierarchy.l1icaches.ReadReq.avgMissLatency::total 38830.193840                       # average ReadReq miss latency ((Tick/Count))
board.cache_hierarchy.l1icaches.ReadReq.mshrHits::processor.cores.core.inst        53766                       # number of ReadReq MSHR hits (Count)
board.cache_hierarchy.l1icaches.ReadReq.mshrHits::total        53766                       # number of ReadReq MSHR hits (Count)
board.cache_hierarchy.l1icaches.ReadReq.mshrMisses::processor.cores.core.inst       322834                       # number of ReadReq MSHR misses (Count)
board.cache_hierarchy.l1icaches.ReadReq.mshrMisses::total       322834                       # number of ReadReq MSHR misses (Count)
board.cache_hierarchy.l1icaches.ReadReq.mshrMissLatency::processor.cores.core.inst  12187973000                       # number of ReadReq MSHR miss ticks (Tick)
board.cache_hierarchy.l1icaches.ReadReq.mshrMissLatency::total  12187973000                       # number of ReadReq MSHR miss ticks (Tick)
board.cache_hierarchy.l1icaches.ReadReq.mshrMissRate::processor.cores.core.inst     0.000658                       # mshr miss rate for ReadReq accesses (Ratio)
board.cache_hierarchy.l1icaches.ReadReq.mshrMissRate::total     0.000658                       # mshr miss rate for ReadReq accesses (Ratio)
board.cache_hierarchy.l1icaches.ReadReq.avgMshrMissLatency::processor.cores.core.inst 37753.065043                       # average ReadReq mshr miss latency ((Tick/Count))
board.cache_hierarchy.l1icaches.ReadReq.avgMshrMissLatency::total 37753.065043                       # average ReadReq mshr miss latency ((Tick/Count))
board.cache_hierarchy.l1icaches.power_state.pwrStateResidencyTicks::UNDEFINED 7436149929750                       # Cumulative time (in ticks) in various power states (Tick)
board.cache_hierarchy.l1icaches.prefetcher.demandMshrMisses       322834                       # demands not covered by prefetchs (Count)
board.cache_hierarchy.l1icaches.prefetcher.pfIssued            0                       # number of hwpf issued (Count)
board.cache_hierarchy.l1icaches.prefetcher.pfUseful            0                       # number of useful prefetch (Count)
board.cache_hierarchy.l1icaches.prefetcher.pfUsefulButMiss            0                       # number of hit on prefetch but cache block is not in an usable state (Count)
board.cache_hierarchy.l1icaches.prefetcher.accuracy          nan                       # accuracy of the prefetcher (Count)
board.cache_hierarchy.l1icaches.prefetcher.coverage            0                       # coverage brought by this prefetcher (Count)
board.cache_hierarchy.l1icaches.prefetcher.pfHitInCache            0                       # number of prefetches hitting in cache (Count)
board.cache_hierarchy.l1icaches.prefetcher.pfHitInMSHR            0                       # number of prefetches hitting in a MSHR (Count)
board.cache_hierarchy.l1icaches.prefetcher.pfHitInWB            0                       # number of prefetches hit in the Write Buffer (Count)
board.cache_hierarchy.l1icaches.prefetcher.pfLate            0                       # number of late prefetches (hitting in cache, MSHR or WB) (Count)
[...]
board.processor.cores.core.fetch.nisnDist::min_value            0                       # Number of instructions fetched each cycle (Total) (Count)
board.processor.cores.core.fetch.nisnDist::max_value            8                       # Number of instructions fetched each cycle (Total) (Count)
board.processor.cores.core.fetch.nisnDist::total   1744015809                       # Number of instructions fetched each cycle (Total) (Count)
board.processor.cores.core.fetchStats0.numInsts   5008297158                       # Number of instructions fetched (thread level) (Count)
board.processor.cores.core.fetchStats0.numOps            0                       # Number of ops (including micro ops) fetched (thread level) (Count)
board.processor.cores.core.fetchStats0.fetchRate     2.865119                       # Number of inst fetches per cycle ((Count/Cycle))
board.processor.cores.core.fetchStats0.numBranches    315806009                       # Number of branches fetched (Count)
board.processor.cores.core.fetchStats0.branchRate     0.180665                       # Number of branch fetches per cycle (Ratio)
board.processor.cores.core.fetchStats0.icacheStallCycles     26788506                       # ICache total stall cycles (Cycle)
board.processor.cores.core.fetchStats0.numFetchSuspends            0                       # Number of times Execute suspended instruction fetching (Count)
board.processor.cores.core.iew.idleCycles            0                       # Number of cycles IEW is idle (Cycle)
board.processor.cores.core.iew.squashCycles     12048286                       # Number of cycles IEW is squashing (Cycle)
board.processor.cores.core.iew.blockCycles     71809769                       # Number of cycles IEW is blocking (Cycle)
board.processor.cores.core.iew.unblockCycles      5790408                       # Number of cycles IEW is unblocking (Cycle)
board.processor.cores.core.iew.dispatchedInsts   4420929524                       # Number of instructions dispatched to IQ (Count)
board.processor.cores.core.iew.dispSquashedInsts       423304                       # Number of squashed instructions skipped by dispatch (Count)
board.processor.cores.core.iew.dispLoadInsts   1284781782                       # Number of dispatched load instructions (Count)
board.processor.cores.core.iew.dispStoreInsts    446632253                       # Number of dispatched store instructions (Count)
board.processor.cores.core.iew.dispNonSpecInsts      1580340                       # Number of dispatched non-speculative instructions (Count)
board.processor.cores.core.iew.iqFullEvents       146188                       # Number of times the IQ has become full, causing a stall (Count)
board.processor.cores.core.iew.lsqFullEvents      5522931                       # Number of times the LSQ has become full, causing a stall (Count)
board.processor.cores.core.iew.memOrderViolationEvents       206881                       # Number of memory order violations (Count)
board.processor.cores.core.iew.predictedTakenIncorrect     10223368                       # Number of branches that were predicted taken incorrectly (Count)
board.processor.cores.core.iew.predictedNotTakenIncorrect      1813632                       # Number of branches that were predicted not taken incorrectly (Count)
board.processor.cores.core.iew.branchMispredicts     12037000                       # Number of branch mispredicts detected at execute (Count)
board.processor.cores.core.iew.instsToCommit   4117033850                       # Cumulative count of insts sent to commit (Count)
board.processor.cores.core.iew.writebackCount   4110955473                       # Cumulative count of insts written-back (Count)
board.processor.cores.core.iew.producerInst   3358012062                       # Number of instructions producing a value (Count)
board.processor.cores.core.iew.consumerInst   3684003875                       # Number of instructions consuming a value (Count)
board.processor.cores.core.iew.wbRate        2.351773                       # Insts written-back per cycle ((Count/Cycle))
board.processor.cores.core.iew.wbFanout      0.911512                       # Average fanout of values written-back ((Count/Count))
board.processor.cores.core.lsq0.forwLoads    419229003                       # Number of loads that had data forwarded from stores (Count)
board.processor.cores.core.lsq0.squashedLoads    225748655                       # Number of loads squashed (Count)
board.processor.cores.core.lsq0.ignoredResponses        13881                       # Number of memory responses ignored because the instruction is squashed (Count)
board.processor.cores.core.lsq0.memOrderViolation       206881                       # Number of memory ordering violations (Count)
board.processor.cores.core.lsq0.squashedStores     41977189                       # Number of stores squashed (Count)
board.processor.cores.core.lsq0.rescheduledLoads        34693                       # Number of loads that were rescheduled (Count)
board.processor.cores.core.lsq0.blockedByCache         5576                       # Number of times an access to memory failed due to the cache being blocked (Count)
board.processor.cores.core.lsq0.loadToUse::samples   1059033106                       # Distribution of cycle latency between the first time a load is issued and its completion (Unspecified)
board.processor.cores.core.lsq0.loadToUse::mean     2.290789                       # Distribution of cycle latency between the first time a load is issued and its completion (Unspecified)
board.processor.cores.core.lsq0.loadToUse::stdev     2.194178                       # Distribution of cycle latency between the first time a load is issued and its completion (Unspecified)
board.processor.cores.core.lsq0.loadToUse::0-9   1057959871     99.90%     99.90% # Distribution of cycle latency between the first time a load is issued and its completion (Unspecified)
board.processor.cores.core.lsq0.loadToUse::10-19       458028      0.04%     99.94% # Distribution of cycle latency between the first time a load is issued and its completion (Unspecified)
board.processor.cores.core.lsq0.loadToUse::20-29        26610      0.00%     99.94% # Distribution of cycle latency between the first time a load is issued and its completion (Unspecified)
board.processor.cores.core.lsq0.loadToUse::30-39        10547      0.00%     99.95% # Distribution of cycle latency between the first time a load is issued and its completion (Unspecified)
board.processor.cores.core.lsq0.loadToUse::40-49        11787      0.00%     99.95% # Distribution of cycle latency between the first time a load is issued and its completion (Unspecified)
board.processor.cores.core.lsq0.loadToUse::50-59        45329      0.00%     99.95% # Distribution of cycle latency between the first time a load is issued and its completion (Unspecified)
board.processor.cores.core.lsq0.loadToUse::60-69       171362      0.02%     99.97% # Distribution of cycle latency between the first time a load is issued and its completion (Unspecified)
board.processor.cores.core.lsq0.loadToUse::70-79       140783      0.01%     99.98% # Distribution of cycle latency between the first time a load is issued and its completion (Unspecified)
board.processor.cores.core.lsq0.loadToUse::80-89        90009      0.01%     99.99% # Distribution of cycle latency between the first time a load is issued and its completion (Unspecified)
board.processor.cores.core.lsq0.loadToUse::90-99        49520      0.00%     99.99% # Distribution of cycle latency between the first time a load is issued and its completion (Unspecified)
board.processor.cores.core.lsq0.loadToUse::100-109        12300      0.00%     99.99% # Distribution of cycle latency between the first time a load is issued and its completion (Unspecified)
board.processor.cores.core.lsq0.loadToUse::110-119         6217      0.00%    100.00% # Distribution of cycle latency between the first time a load is issued and its completion (Unspecified)
board.processor.cores.core.lsq0.loadToUse::120-129         5450      0.00%    100.00% # Distribution of cycle latency between the first time a load is issued and its completion (Unspecified)
board.processor.cores.core.lsq0.loadToUse::130-139         6351      0.00%    100.00% # Distribution of cycle latency between the first time a load is issued and its completion (Unspecified)
board.processor.cores.core.lsq0.loadToUse::140-149         4863      0.00%    100.00% # Distribution of cycle latency between the first time a load is issued and its completion (Unspecified)
board.processor.cores.core.lsq0.loadToUse::150-159         5163      0.00%    100.00% # Distribution of cycle latency between the first time a load is issued and its completion (Unspecified)
board.processor.cores.core.lsq0.loadToUse::160-169         5767      0.00%    100.00% # Distribution of cycle latency between the first time a load is issued and its completion (Unspecified)
board.processor.cores.core.lsq0.loadToUse::170-179         3276      0.00%    100.00% # Distribution of cycle latency between the first time a load is issued and its completion (Unspecified)
board.processor.cores.core.lsq0.loadToUse::180-189         3191      0.00%    100.00% # Distribution of cycle latency between the first time a load is issued and its completion (Unspecified)
board.processor.cores.core.lsq0.loadToUse::190-199         2732      0.00%    100.00% # Distribution of cycle latency between the first time a load is issued and its completion (Unspecified)
board.processor.cores.core.lsq0.loadToUse::200-209         1357      0.00%    100.00% # Distribution of cycle latency between the first time a load is issued and its completion (Unspecified)
board.processor.cores.core.lsq0.loadToUse::210-219         1061      0.00%    100.00% # Distribution of cycle latency between the first time a load is issued and its completion (Unspecified)
board.processor.cores.core.lsq0.loadToUse::220-229         1057      0.00%    100.00% # Distribution of cycle latency between the first time a load is issued and its completion (Unspecified)
board.processor.cores.core.lsq0.loadToUse::230-239          947      0.00%    100.00% # Distribution of cycle latency between the first time a load is issued and its completion (Unspecified)
board.processor.cores.core.lsq0.loadToUse::240-249          653      0.00%    100.00% # Distribution of cycle latency between the first time a load is issued and its completion (Unspecified)
board.processor.cores.core.lsq0.loadToUse::250-259          654      0.00%    100.00% # Distribution of cycle latency between the first time a load is issued and its completion (Unspecified)
board.processor.cores.core.lsq0.loadToUse::260-269          646      0.00%    100.00% # Distribution of cycle latency between the first time a load is issued and its completion (Unspecified)
board.processor.cores.core.lsq0.loadToUse::270-279          670      0.00%    100.00% # Distribution of cycle latency between the first time a load is issued and its completion (Unspecified)
board.processor.cores.core.lsq0.loadToUse::280-289          713      0.00%    100.00% # Distribution of cycle latency between the first time a load is issued and its completion (Unspecified)
board.processor.cores.core.lsq0.loadToUse::290-299          790      0.00%    100.00% # Distribution of cycle latency between the first time a load is issued and its completion (Unspecified)
board.processor.cores.core.lsq0.loadToUse::overflows         5402      0.00%    100.00% # Distribution of cycle latency between the first time a load is issued and its completion (Unspecified)
board.processor.cores.core.lsq0.loadToUse::min_value            2                       # Distribution of cycle latency between the first time a load is issued and its completion (Unspecified)
board.processor.cores.core.lsq0.loadToUse::max_value          809                       # Distribution of cycle latency between the first time a load is issued and its completion (Unspecified)
board.processor.cores.core.lsq0.loadToUse::total   1059033106                       # Distribution of cycle latency between the first time a load is issued and its completion (Unspecified)
board.processor.cores.core.mmu.dtb.readHits   1194367849                       # read hits (Count)
board.processor.cores.core.mmu.dtb.readMisses       100554                       # read misses (Count)
board.processor.cores.core.mmu.dtb.readAccesses   1194468403                       # read accesses (Count)
board.processor.cores.core.mmu.dtb.writeHits    423282278                       # write hits (Count)
board.processor.cores.core.mmu.dtb.writeMisses       115802                       # write misses (Count)
board.processor.cores.core.mmu.dtb.writeAccesses    423398080                       # write accesses (Count)
board.processor.cores.core.mmu.dtb.hits    1617650127                       # Total TLB (read and write) hits (Count)
board.processor.cores.core.mmu.dtb.misses       216356                       # Total TLB (read and write) misses (Count)
board.processor.cores.core.mmu.dtb.accesses   1617866483                       # Total TLB (read and write) accesses (Count)
board.processor.cores.core.mmu.dtb.walker.power_state.pwrStateResidencyTicks::UNDEFINED 7436149929750                       # Cumulative time (in ticks) in various power states (Tick)
board.processor.cores.core.mmu.itb.readHits    490446483                       # read hits (Count)
board.processor.cores.core.mmu.itb.readMisses        13030                       # read misses (Count)
board.processor.cores.core.mmu.itb.readAccesses    490459513                       # read accesses (Count)
board.processor.cores.core.mmu.itb.writeHits            0                       # write hits (Count)
board.processor.cores.core.mmu.itb.writeMisses            0                       # write misses (Count)
board.processor.cores.core.mmu.itb.writeAccesses            0                       # write accesses (Count)
board.processor.cores.core.mmu.itb.hits     490446483                       # Total TLB (read and write) hits (Count)
board.processor.cores.core.mmu.itb.misses        13030                       # Total TLB (read and write) misses (Count)
board.processor.cores.core.mmu.itb.accesses    490459513                       # Total TLB (read and write) accesses (Count)
board.processor.cores.core.mmu.itb.walker.power_state.pwrStateResidencyTicks::UNDEFINED 7436149929750                       # Cumulative time (in ticks) in various power states (Tick)
board.processor.cores.core.power_state.numTransitions          128                       # Number of power state transitions (Count)
board.processor.cores.core.power_state.ticksClkGated::samples           64                       # Distribution of time spent in the clock gated state (Tick)
board.processor.cores.core.power_state.ticksClkGated::mean 3937124437.500000                       # Distribution of time spent in the clock gated state (Tick)
board.processor.cores.core.power_state.ticksClkGated::stdev 358574313.608437                       # Distribution of time spent in the clock gated state (Tick)
board.processor.cores.core.power_state.ticksClkGated::1000-5e+10           64    100.00%    100.00% # Distribution of time spent in the clock gated state (Tick)
board.processor.cores.core.power_state.ticksClkGated::min_value   1388536000                       # Distribution of time spent in the clock gated state (Tick)
board.processor.cores.core.power_state.ticksClkGated::max_value   3997894000                       # Distribution of time spent in the clock gated state (Tick)
board.processor.cores.core.power_state.ticksClkGated::total           64                       # Distribution of time spent in the clock gated state (Tick)
board.processor.cores.core.power_state.pwrStateResidencyTicks::ON 1750260125750                       # Cumulative time (in ticks) in various power states (Tick)
board.processor.cores.core.power_state.pwrStateResidencyTicks::CLK_GATED 251975964000                       # Cumulative time (in ticks) in various power states (Tick)
board.processor.cores.core.rename.squashCycles     12048286                       # Number of cycles rename is squashing (Cycle)
board.processor.cores.core.rename.idleCycles    238902157                       # Number of cycles rename is idle (Cycle)
board.processor.cores.core.rename.blockCycles    216697698                       # Number of cycles rename is blocking (Cycle)
board.processor.cores.core.rename.serializeStallCycles     17647881                       # count of cycles rename stalled for serializing inst (Cycle)
board.processor.cores.core.rename.runCycles    571144125                       # Number of cycles rename is running (Cycle)
board.processor.cores.core.rename.unblockCycles    687575661                       # Number of cycles rename is unblocking (Cycle)
board.processor.cores.core.rename.renamedInsts   4548217024                       # Number of instructions processed by rename (Count)
board.processor.cores.core.rename.ROBFullEvents        45340                       # Number of times rename has blocked due to ROB full (Count)
board.processor.cores.core.rename.IQFullEvents    437506980                       # Number of times rename has blocked due to IQ full (Count)
board.processor.cores.core.rename.LQFullEvents    206370451                       # Number of times rename has blocked due to LQ full (Count)
board.processor.cores.core.rename.SQFullEvents     40813485                       # Number of times rename has blocked due to SQ full (Count)
board.processor.cores.core.rename.renamedOperands   3840983569                       # Number of destination operands rename has renamed (Count)
board.processor.cores.core.rename.lookups   5454891030                       # Number of register rename lookups that rename has made (Count)
board.processor.cores.core.rename.intLookups   5387838998                       # Number of integer rename lookups (Count)
board.processor.cores.core.rename.fpLookups         2375                       # Number of floating rename lookups (Count)
board.processor.cores.core.rename.committedMaps   3238830609                       # Number of HB maps that are committed (Count)
board.processor.cores.core.rename.undoneMaps    602152899                       # Number of HB maps that are undone due to squashing (Count)
board.processor.cores.core.rename.serializing      1026573                       # count of serializing insts renamed (Count)
board.processor.cores.core.rename.tempSerializing      1026560                       # count of temporary serializing insts renamed (Count)
board.processor.cores.core.rename.skidInsts   1145165896                       # count of insts added to the skid buffer (Count)
board.processor.cores.core.rob.reads       5865037942                       # The number of ROB reads (Count)
board.processor.cores.core.rob.writes      8921019294                       # The number of ROB writes (Count)
board.processor.cores.core.thread_0.numInsts   3818695445                       # Number of Instructions committed (Count)
board.processor.cores.core.thread_0.numOps   3819042020                       # Number of Ops committed (Count)
board.processor.cores.core.thread_0.numMemRefs            0                       # Number of Memory References (Count)
board.rng.power_state.pwrStateResidencyTicks::UNDEFINED 7436149929750                       # Cumulative time (in ticks) in various power states (Tick)
board.workload.inst.arm                             0                       # number of arm instructions executed (Count)
board.workload.inst.quiesce                        64                       # number of quiesce instructions executed (Count)

---------- End Simulation Statistics   ----------
