
---------- Begin Simulation Statistics ----------
simSeconds                                          2                       # Number of seconds simulated (Second)
simTicks                                 2000000000000                       # Number of ticks simulated (Tick)
finalTick                                7408562716000                       # Number of ticks from beginning of simulation (restored from checkpoints and never reset) (Tick)
simFreq                                  1000000000000                       # The number of ticks per simulated second ((Tick/Second))
hostSeconds                                  43302.22                       # Real time elapsed on the host (Second)
hostTickRate                                 46187007                       # The number of ticks simulated per host second (ticks/s) ((Tick/Second))
hostMemory                                    8698916                       # Number of bytes of host memory used (Byte)
simInsts                                   5258534412                       # Number of instructions simulated (Count)
simOps                                     5258859599                       # Number of ops (including micro ops) simulated (Count)
hostInstRate                                   121438                       # Simulator instruction rate (inst/s) ((Count/Second))
hostOpRate                                     121445                       # Simulator op (including micro ops) rate (op/s) ((Count/Second))
board.bridge.power_state.pwrStateResidencyTicks::UNDEFINED 7408562716000                       # Cumulative time (in ticks) in various power states (Tick)
board.cache_hierarchy.dptw_caches.demandHits::processor.cores.core.mmu.dtb.walker       478566                       # number of demand (read+write) hits (Count)
board.cache_hierarchy.dptw_caches.demandHits::total       478566                       # number of demand (read+write) hits (Count)
board.cache_hierarchy.dptw_caches.overallHits::processor.cores.core.mmu.dtb.walker       478566                       # number of overall hits (Count)
board.cache_hierarchy.dptw_caches.overallHits::total       478566                       # number of overall hits (Count)
board.cache_hierarchy.dptw_caches.demandMisses::processor.cores.core.mmu.dtb.walker        49254                       # number of demand (read+write) misses (Count)
board.cache_hierarchy.dptw_caches.demandMisses::total        49254                       # number of demand (read+write) misses (Count)
board.cache_hierarchy.dptw_caches.overallMisses::processor.cores.core.mmu.dtb.walker        49254                       # number of overall misses (Count)
board.cache_hierarchy.dptw_caches.overallMisses::total        49254                       # number of overall misses (Count)
board.cache_hierarchy.dptw_caches.demandMissLatency::processor.cores.core.mmu.dtb.walker    759412000                       # number of demand (read+write) miss ticks (Tick)
board.cache_hierarchy.dptw_caches.demandMissLatency::total    759412000                       # number of demand (read+write) miss ticks (Tick)
board.cache_hierarchy.dptw_caches.overallMissLatency::processor.cores.core.mmu.dtb.walker    759412000                       # number of overall miss ticks (Tick)
board.cache_hierarchy.dptw_caches.overallMissLatency::total    759412000                       # number of overall miss ticks (Tick)
board.cache_hierarchy.dptw_caches.demandAccesses::processor.cores.core.mmu.dtb.walker       527820                       # number of demand (read+write) accesses (Count)
board.cache_hierarchy.dptw_caches.demandAccesses::total       527820                       # number of demand (read+write) accesses (Count)
board.cache_hierarchy.dptw_caches.overallAccesses::processor.cores.core.mmu.dtb.walker       527820                       # number of overall (read+write) accesses (Count)
board.cache_hierarchy.dptw_caches.overallAccesses::total       527820                       # number of overall (read+write) accesses (Count)
board.cache_hierarchy.dptw_caches.demandMissRate::processor.cores.core.mmu.dtb.walker     0.093316                       # miss rate for demand accesses (Ratio)
board.cache_hierarchy.dptw_caches.demandMissRate::total     0.093316                       # miss rate for demand accesses (Ratio)
board.cache_hierarchy.dptw_caches.overallMissRate::processor.cores.core.mmu.dtb.walker     0.093316                       # miss rate for overall accesses (Ratio)
board.cache_hierarchy.dptw_caches.overallMissRate::total     0.093316                       # miss rate for overall accesses (Ratio)
board.cache_hierarchy.dptw_caches.demandAvgMissLatency::processor.cores.core.mmu.dtb.walker 15418.280749                       # average overall miss latency in ticks ((Tick/Count))
board.cache_hierarchy.dptw_caches.demandAvgMissLatency::total 15418.280749                       # average overall miss latency in ticks ((Tick/Count))
board.cache_hierarchy.dptw_caches.overallAvgMissLatency::processor.cores.core.mmu.dtb.walker 15418.280749                       # average overall miss latency ((Tick/Count))
board.cache_hierarchy.dptw_caches.overallAvgMissLatency::total 15418.280749                       # average overall miss latency ((Tick/Count))
board.cache_hierarchy.dptw_caches.blockedCycles::no_mshrs            0                       # number of cycles access was blocked (Cycle)
board.cache_hierarchy.dptw_caches.blockedCycles::no_targets            0                       # number of cycles access was blocked (Cycle)
board.cache_hierarchy.dptw_caches.blockedCauses::no_mshrs            0                       # number of times access was blocked (Count)
board.cache_hierarchy.dptw_caches.blockedCauses::no_targets            0                       # number of times access was blocked (Count)
board.cache_hierarchy.dptw_caches.avgBlocked::no_mshrs          nan                       # average number of cycles each access was blocked ((Cycle/Count))
board.cache_hierarchy.dptw_caches.avgBlocked::no_targets          nan                       # average number of cycles each access was blocked ((Cycle/Count))
board.cache_hierarchy.dptw_caches.writebacks::writebacks          352                       # number of writebacks (Count)
board.cache_hierarchy.dptw_caches.writebacks::total          352                       # number of writebacks (Count)
board.cache_hierarchy.dptw_caches.demandMshrMisses::processor.cores.core.mmu.dtb.walker        49254                       # number of demand (read+write) MSHR misses (Count)
board.cache_hierarchy.dptw_caches.demandMshrMisses::total        49254                       # number of demand (read+write) MSHR misses (Count)
board.cache_hierarchy.dptw_caches.overallMshrMisses::processor.cores.core.mmu.dtb.walker        49254                       # number of overall MSHR misses (Count)
board.cache_hierarchy.dptw_caches.overallMshrMisses::total        49254                       # number of overall MSHR misses (Count)
board.cache_hierarchy.dptw_caches.demandMshrMissLatency::processor.cores.core.mmu.dtb.walker    710158000                       # number of demand (read+write) MSHR miss ticks (Tick)
board.cache_hierarchy.dptw_caches.demandMshrMissLatency::total    710158000                       # number of demand (read+write) MSHR miss ticks (Tick)
board.cache_hierarchy.dptw_caches.overallMshrMissLatency::processor.cores.core.mmu.dtb.walker    710158000                       # number of overall MSHR miss ticks (Tick)
board.cache_hierarchy.dptw_caches.overallMshrMissLatency::total    710158000                       # number of overall MSHR miss ticks (Tick)
board.cache_hierarchy.dptw_caches.demandMshrMissRate::processor.cores.core.mmu.dtb.walker     0.093316                       # mshr miss ratio for demand accesses (Ratio)
board.cache_hierarchy.dptw_caches.demandMshrMissRate::total     0.093316                       # mshr miss ratio for demand accesses (Ratio)
board.cache_hierarchy.dptw_caches.overallMshrMissRate::processor.cores.core.mmu.dtb.walker     0.093316                       # mshr miss ratio for overall accesses (Ratio)
board.cache_hierarchy.dptw_caches.overallMshrMissRate::total     0.093316                       # mshr miss ratio for overall accesses (Ratio)
board.cache_hierarchy.dptw_caches.demandAvgMshrMissLatency::processor.cores.core.mmu.dtb.walker 14418.280749                       # average overall mshr miss latency ((Tick/Count))
board.cache_hierarchy.dptw_caches.demandAvgMshrMissLatency::total 14418.280749                       # average overall mshr miss latency ((Tick/Count))
board.cache_hierarchy.dptw_caches.overallAvgMshrMissLatency::processor.cores.core.mmu.dtb.walker 14418.280749                       # average overall mshr miss latency ((Tick/Count))
board.cache_hierarchy.dptw_caches.overallAvgMshrMissLatency::total 14418.280749                       # average overall mshr miss latency ((Tick/Count))
board.cache_hierarchy.dptw_caches.replacements        12632                       # number of replacements (Count)
board.cache_hierarchy.dptw_caches.ReadReq.hits::processor.cores.core.mmu.dtb.walker       478248                       # number of ReadReq hits (Count)
board.cache_hierarchy.dptw_caches.ReadReq.hits::total       478248                       # number of ReadReq hits (Count)
board.cache_hierarchy.dptw_caches.ReadReq.misses::processor.cores.core.mmu.dtb.walker        49103                       # number of ReadReq misses (Count)
board.cache_hierarchy.dptw_caches.ReadReq.misses::total        49103                       # number of ReadReq misses (Count)
board.cache_hierarchy.dptw_caches.ReadReq.missLatency::processor.cores.core.mmu.dtb.walker    758489000                       # number of ReadReq miss ticks (Tick)
board.cache_hierarchy.dptw_caches.ReadReq.missLatency::total    758489000                       # number of ReadReq miss ticks (Tick)
board.cache_hierarchy.dptw_caches.ReadReq.accesses::processor.cores.core.mmu.dtb.walker       527351                       # number of ReadReq accesses(hits+misses) (Count)
board.cache_hierarchy.dptw_caches.ReadReq.accesses::total       527351                       # number of ReadReq accesses(hits+misses) (Count)
board.cache_hierarchy.dptw_caches.ReadReq.missRate::processor.cores.core.mmu.dtb.walker     0.093113                       # miss rate for ReadReq accesses (Ratio)
board.cache_hierarchy.dptw_caches.ReadReq.missRate::total     0.093113                       # miss rate for ReadReq accesses (Ratio)
board.cache_hierarchy.dptw_caches.ReadReq.avgMissLatency::processor.cores.core.mmu.dtb.walker 15446.897338                       # average ReadReq miss latency ((Tick/Count))
board.cache_hierarchy.dptw_caches.ReadReq.avgMissLatency::total 15446.897338                       # average ReadReq miss latency ((Tick/Count))
board.cache_hierarchy.dptw_caches.ReadReq.mshrMisses::processor.cores.core.mmu.dtb.walker        49103                       # number of ReadReq MSHR misses (Count)
board.cache_hierarchy.dptw_caches.ReadReq.mshrMisses::total        49103                       # number of ReadReq MSHR misses (Count)
board.cache_hierarchy.dptw_caches.ReadReq.mshrMissLatency::processor.cores.core.mmu.dtb.walker    709386000                       # number of ReadReq MSHR miss ticks (Tick)
board.cache_hierarchy.dptw_caches.ReadReq.mshrMissLatency::total    709386000                       # number of ReadReq MSHR miss ticks (Tick)
board.cache_hierarchy.dptw_caches.ReadReq.mshrMissRate::processor.cores.core.mmu.dtb.walker     0.093113                       # mshr miss rate for ReadReq accesses (Ratio)
board.cache_hierarchy.dptw_caches.ReadReq.mshrMissRate::total     0.093113                       # mshr miss rate for ReadReq accesses (Ratio)
board.cache_hierarchy.dptw_caches.ReadReq.avgMshrMissLatency::processor.cores.core.mmu.dtb.walker 14446.897338                       # average ReadReq mshr miss latency ((Tick/Count))
board.cache_hierarchy.dptw_caches.ReadReq.avgMshrMissLatency::total 14446.897338                       # average ReadReq mshr miss latency ((Tick/Count))
board.cache_hierarchy.dptw_caches.WriteReq.hits::processor.cores.core.mmu.dtb.walker          318                       # number of WriteReq hits (Count)
board.cache_hierarchy.dptw_caches.WriteReq.hits::total          318                       # number of WriteReq hits (Count)
board.cache_hierarchy.dptw_caches.WriteReq.misses::processor.cores.core.mmu.dtb.walker          151                       # number of WriteReq misses (Count)
board.cache_hierarchy.dptw_caches.WriteReq.misses::total          151                       # number of WriteReq misses (Count)
board.cache_hierarchy.dptw_caches.WriteReq.missLatency::processor.cores.core.mmu.dtb.walker       923000                       # number of WriteReq miss ticks (Tick)
board.cache_hierarchy.dptw_caches.WriteReq.missLatency::total       923000                       # number of WriteReq miss ticks (Tick)
board.cache_hierarchy.dptw_caches.WriteReq.accesses::processor.cores.core.mmu.dtb.walker          469                       # number of WriteReq accesses(hits+misses) (Count)
board.cache_hierarchy.dptw_caches.WriteReq.accesses::total          469                       # number of WriteReq accesses(hits+misses) (Count)
board.cache_hierarchy.dptw_caches.WriteReq.missRate::processor.cores.core.mmu.dtb.walker     0.321962                       # miss rate for WriteReq accesses (Ratio)
board.cache_hierarchy.dptw_caches.WriteReq.missRate::total     0.321962                       # miss rate for WriteReq accesses (Ratio)
board.cache_hierarchy.dptw_caches.WriteReq.avgMissLatency::processor.cores.core.mmu.dtb.walker  6112.582781                       # average WriteReq miss latency ((Tick/Count))
board.cache_hierarchy.dptw_caches.WriteReq.avgMissLatency::total  6112.582781                       # average WriteReq miss latency ((Tick/Count))
board.cache_hierarchy.dptw_caches.WriteReq.mshrMisses::processor.cores.core.mmu.dtb.walker          151                       # number of WriteReq MSHR misses (Count)
board.cache_hierarchy.dptw_caches.WriteReq.mshrMisses::total          151                       # number of WriteReq MSHR misses (Count)
board.cache_hierarchy.dptw_caches.WriteReq.mshrMissLatency::processor.cores.core.mmu.dtb.walker       772000                       # number of WriteReq MSHR miss ticks (Tick)
board.cache_hierarchy.dptw_caches.WriteReq.mshrMissLatency::total       772000                       # number of WriteReq MSHR miss ticks (Tick)
board.cache_hierarchy.dptw_caches.WriteReq.mshrMissRate::processor.cores.core.mmu.dtb.walker     0.321962                       # mshr miss rate for WriteReq accesses (Ratio)
board.cache_hierarchy.dptw_caches.WriteReq.mshrMissRate::total     0.321962                       # mshr miss rate for WriteReq accesses (Ratio)
board.cache_hierarchy.dptw_caches.WriteReq.avgMshrMissLatency::processor.cores.core.mmu.dtb.walker  5112.582781                       # average WriteReq mshr miss latency ((Tick/Count))
board.cache_hierarchy.dptw_caches.WriteReq.avgMshrMissLatency::total  5112.582781                       # average WriteReq mshr miss latency ((Tick/Count))
board.cache_hierarchy.dptw_caches.power_state.pwrStateResidencyTicks::UNDEFINED 7408562716000                       # Cumulative time (in ticks) in various power states (Tick)
board.cache_hierarchy.dptw_caches.tags.tagsInUse   119.082530                       # Average ticks per tags in use ((Tick/Count))
board.cache_hierarchy.dptw_caches.tags.totalRefs       527820                       # Total number of references to valid blocks. (Count)
board.cache_hierarchy.dptw_caches.tags.sampledRefs        49103                       # Sample count of references to valid blocks. (Count)
board.cache_hierarchy.dptw_caches.tags.avgRefs    10.749241                       # Average number of references to valid blocks. ((Count/Count))
board.cache_hierarchy.dptw_caches.tags.warmupTick 5408566014000                       # The tick when the warmup percentage was hit. (Tick)
board.cache_hierarchy.dptw_caches.tags.occupancies::processor.cores.core.mmu.dtb.walker   119.082530                       # Average occupied blocks per tick, per requestor ((Count/Tick))
board.cache_hierarchy.dptw_caches.tags.avgOccs::processor.cores.core.mmu.dtb.walker     0.930332                       # Average percentage of cache occupancy ((Ratio/Tick))
board.cache_hierarchy.dptw_caches.tags.avgOccs::total     0.930332                       # Average percentage of cache occupancy ((Ratio/Tick))
board.cache_hierarchy.dptw_caches.tags.occupanciesTaskId::1024          128                       # Occupied blocks per task id (Count)
board.cache_hierarchy.dptw_caches.tags.ageTaskId_1024::1            2                       # Occupied blocks per task id, per block age (Count)
board.cache_hierarchy.dptw_caches.tags.ageTaskId_1024::2            6                       # Occupied blocks per task id, per block age (Count)
board.cache_hierarchy.dptw_caches.tags.ageTaskId_1024::3           29                       # Occupied blocks per task id, per block age (Count)
board.cache_hierarchy.dptw_caches.tags.ageTaskId_1024::4           91                       # Occupied blocks per task id, per block age (Count)
board.cache_hierarchy.dptw_caches.tags.ratioOccsTaskId::1024            1                       # Ratio of occupied blocks and all blocks, per task id (Ratio)
board.cache_hierarchy.dptw_caches.tags.tagAccesses      2160383                       # Number of tag accesses (Count)
board.cache_hierarchy.dptw_caches.tags.dataAccesses      2160383                       # Number of data accesses (Count)
board.cache_hierarchy.dptw_caches.tags.power_state.pwrStateResidencyTicks::UNDEFINED 7408562716000                       # Cumulative time (in ticks) in various power states (Tick)
board.cache_hierarchy.iocache.blockedCycles::no_mshrs            0                       # number of cycles access was blocked (Cycle)
board.cache_hierarchy.iocache.blockedCycles::no_targets            0                       # number of cycles access was blocked (Cycle)
board.cache_hierarchy.iocache.blockedCauses::no_mshrs            0                       # number of times access was blocked (Count)
board.cache_hierarchy.iocache.blockedCauses::no_targets            0                       # number of times access was blocked (Count)
board.cache_hierarchy.iocache.avgBlocked::no_mshrs          nan                       # average number of cycles each access was blocked ((Cycle/Count))
board.cache_hierarchy.iocache.avgBlocked::no_targets          nan                       # average number of cycles each access was blocked ((Cycle/Count))
board.cache_hierarchy.iocache.replacements            0                       # number of replacements (Count)
board.cache_hierarchy.iocache.power_state.pwrStateResidencyTicks::UNDEFINED 7408562716000                       # Cumulative time (in ticks) in various power states (Tick)
board.cache_hierarchy.iocache.tags.tagsInUse            0                       # Average ticks per tags in use ((Tick/Count))
board.cache_hierarchy.iocache.tags.totalRefs            0                       # Total number of references to valid blocks. (Count)
board.cache_hierarchy.iocache.tags.sampledRefs            0                       # Sample count of references to valid blocks. (Count)
board.cache_hierarchy.iocache.tags.avgRefs          nan                       # Average number of references to valid blocks. ((Count/Count))
board.cache_hierarchy.iocache.tags.warmupTick            0                       # The tick when the warmup percentage was hit. (Tick)
board.cache_hierarchy.iocache.tags.tagAccesses            0                       # Number of tag accesses (Count)
board.cache_hierarchy.iocache.tags.dataAccesses            0                       # Number of data accesses (Count)
board.cache_hierarchy.iocache.tags.power_state.pwrStateResidencyTicks::UNDEFINED 7408562716000                       # Cumulative time (in ticks) in various power states (Tick)
board.cache_hierarchy.iptw_caches.demandHits::processor.cores.core.mmu.itb.walker        27629                       # number of demand (read+write) hits (Count)
board.cache_hierarchy.iptw_caches.demandHits::total        27629                       # number of demand (read+write) hits (Count)
board.cache_hierarchy.iptw_caches.overallHits::processor.cores.core.mmu.itb.walker        27629                       # number of overall hits (Count)
board.cache_hierarchy.iptw_caches.overallHits::total        27629                       # number of overall hits (Count)
board.cache_hierarchy.iptw_caches.demandMisses::processor.cores.core.mmu.itb.walker         3587                       # number of demand (read+write) misses (Count)
board.cache_hierarchy.iptw_caches.demandMisses::total         3587                       # number of demand (read+write) misses (Count)
board.cache_hierarchy.iptw_caches.overallMisses::processor.cores.core.mmu.itb.walker         3587                       # number of overall misses (Count)
board.cache_hierarchy.iptw_caches.overallMisses::total         3587                       # number of overall misses (Count)
board.cache_hierarchy.iptw_caches.demandMissLatency::processor.cores.core.mmu.itb.walker    215092000                       # number of demand (read+write) miss ticks (Tick)
board.cache_hierarchy.iptw_caches.demandMissLatency::total    215092000                       # number of demand (read+write) miss ticks (Tick)
board.cache_hierarchy.iptw_caches.overallMissLatency::processor.cores.core.mmu.itb.walker    215092000                       # number of overall miss ticks (Tick)
board.cache_hierarchy.iptw_caches.overallMissLatency::total    215092000                       # number of overall miss ticks (Tick)
board.cache_hierarchy.iptw_caches.demandAccesses::processor.cores.core.mmu.itb.walker        31216                       # number of demand (read+write) accesses (Count)
board.cache_hierarchy.iptw_caches.demandAccesses::total        31216                       # number of demand (read+write) accesses (Count)
board.cache_hierarchy.iptw_caches.overallAccesses::processor.cores.core.mmu.itb.walker        31216                       # number of overall (read+write) accesses (Count)
board.cache_hierarchy.iptw_caches.overallAccesses::total        31216                       # number of overall (read+write) accesses (Count)
board.cache_hierarchy.iptw_caches.demandMissRate::processor.cores.core.mmu.itb.walker     0.114909                       # miss rate for demand accesses (Ratio)
board.cache_hierarchy.iptw_caches.demandMissRate::total     0.114909                       # miss rate for demand accesses (Ratio)
board.cache_hierarchy.iptw_caches.overallMissRate::processor.cores.core.mmu.itb.walker     0.114909                       # miss rate for overall accesses (Ratio)
board.cache_hierarchy.iptw_caches.overallMissRate::total     0.114909                       # miss rate for overall accesses (Ratio)
board.cache_hierarchy.iptw_caches.demandAvgMissLatency::processor.cores.core.mmu.itb.walker 59964.315584                       # average overall miss latency in ticks ((Tick/Count))
board.cache_hierarchy.iptw_caches.demandAvgMissLatency::total 59964.315584                       # average overall miss latency in ticks ((Tick/Count))
board.cache_hierarchy.iptw_caches.overallAvgMissLatency::processor.cores.core.mmu.itb.walker 59964.315584                       # average overall miss latency ((Tick/Count))
board.cache_hierarchy.iptw_caches.overallAvgMissLatency::total 59964.315584                       # average overall miss latency ((Tick/Count))
board.cache_hierarchy.iptw_caches.blockedCycles::no_mshrs            0                       # number of cycles access was blocked (Cycle)
board.cache_hierarchy.iptw_caches.blockedCycles::no_targets            0                       # number of cycles access was blocked (Cycle)
board.cache_hierarchy.iptw_caches.blockedCauses::no_mshrs            0                       # number of times access was blocked (Count)
board.cache_hierarchy.iptw_caches.blockedCauses::no_targets            0                       # number of times access was blocked (Count)
board.cache_hierarchy.iptw_caches.avgBlocked::no_mshrs          nan                       # average number of cycles each access was blocked ((Cycle/Count))
board.cache_hierarchy.iptw_caches.avgBlocked::no_targets          nan                       # average number of cycles each access was blocked ((Cycle/Count))
board.cache_hierarchy.iptw_caches.writebacks::writebacks           21                       # number of writebacks (Count)
board.cache_hierarchy.iptw_caches.writebacks::total           21                       # number of writebacks (Count)
board.cache_hierarchy.iptw_caches.demandMshrMisses::processor.cores.core.mmu.itb.walker         3587                       # number of demand (read+write) MSHR misses (Count)
board.cache_hierarchy.iptw_caches.demandMshrMisses::total         3587                       # number of demand (read+write) MSHR misses (Count)
board.cache_hierarchy.iptw_caches.overallMshrMisses::processor.cores.core.mmu.itb.walker         3587                       # number of overall MSHR misses (Count)
board.cache_hierarchy.iptw_caches.overallMshrMisses::total         3587                       # number of overall MSHR misses (Count)
board.cache_hierarchy.iptw_caches.demandMshrMissLatency::processor.cores.core.mmu.itb.walker    211505000                       # number of demand (read+write) MSHR miss ticks (Tick)
board.cache_hierarchy.iptw_caches.demandMshrMissLatency::total    211505000                       # number of demand (read+write) MSHR miss ticks (Tick)
board.cache_hierarchy.iptw_caches.overallMshrMissLatency::processor.cores.core.mmu.itb.walker    211505000                       # number of overall MSHR miss ticks (Tick)
board.cache_hierarchy.iptw_caches.overallMshrMissLatency::total    211505000                       # number of overall MSHR miss ticks (Tick)
board.cache_hierarchy.iptw_caches.demandMshrMissRate::processor.cores.core.mmu.itb.walker     0.114909                       # mshr miss ratio for demand accesses (Ratio)
board.cache_hierarchy.iptw_caches.demandMshrMissRate::total     0.114909                       # mshr miss ratio for demand accesses (Ratio)
board.cache_hierarchy.iptw_caches.overallMshrMissRate::processor.cores.core.mmu.itb.walker     0.114909                       # mshr miss ratio for overall accesses (Ratio)
board.cache_hierarchy.iptw_caches.overallMshrMissRate::total     0.114909                       # mshr miss ratio for overall accesses (Ratio)
board.cache_hierarchy.iptw_caches.demandAvgMshrMissLatency::processor.cores.core.mmu.itb.walker 58964.315584                       # average overall mshr miss latency ((Tick/Count))
board.cache_hierarchy.iptw_caches.demandAvgMshrMissLatency::total 58964.315584                       # average overall mshr miss latency ((Tick/Count))
board.cache_hierarchy.iptw_caches.overallAvgMshrMissLatency::processor.cores.core.mmu.itb.walker 58964.315584                       # average overall mshr miss latency ((Tick/Count))
board.cache_hierarchy.iptw_caches.overallAvgMshrMissLatency::total 58964.315584                       # average overall mshr miss latency ((Tick/Count))
board.cache_hierarchy.iptw_caches.replacements         2226                       # number of replacements (Count)
board.cache_hierarchy.iptw_caches.ReadReq.hits::processor.cores.core.mmu.itb.walker        27629                       # number of ReadReq hits (Count)
board.cache_hierarchy.iptw_caches.ReadReq.hits::total        27629                       # number of ReadReq hits (Count)
board.cache_hierarchy.iptw_caches.ReadReq.misses::processor.cores.core.mmu.itb.walker         3587                       # number of ReadReq misses (Count)
board.cache_hierarchy.iptw_caches.ReadReq.misses::total         3587                       # number of ReadReq misses (Count)
board.cache_hierarchy.iptw_caches.ReadReq.missLatency::processor.cores.core.mmu.itb.walker    215092000                       # number of ReadReq miss ticks (Tick)
board.cache_hierarchy.iptw_caches.ReadReq.missLatency::total    215092000                       # number of ReadReq miss ticks (Tick)
board.cache_hierarchy.iptw_caches.ReadReq.accesses::processor.cores.core.mmu.itb.walker        31216                       # number of ReadReq accesses(hits+misses) (Count)
board.cache_hierarchy.iptw_caches.ReadReq.accesses::total        31216                       # number of ReadReq accesses(hits+misses) (Count)
board.cache_hierarchy.iptw_caches.ReadReq.missRate::processor.cores.core.mmu.itb.walker     0.114909                       # miss rate for ReadReq accesses (Ratio)
board.cache_hierarchy.iptw_caches.ReadReq.missRate::total     0.114909                       # miss rate for ReadReq accesses (Ratio)
board.cache_hierarchy.iptw_caches.ReadReq.avgMissLatency::processor.cores.core.mmu.itb.walker 59964.315584                       # average ReadReq miss latency ((Tick/Count))
board.cache_hierarchy.iptw_caches.ReadReq.avgMissLatency::total 59964.315584                       # average ReadReq miss latency ((Tick/Count))
board.cache_hierarchy.iptw_caches.ReadReq.mshrMisses::processor.cores.core.mmu.itb.walker         3587                       # number of ReadReq MSHR misses (Count)
board.cache_hierarchy.iptw_caches.ReadReq.mshrMisses::total         3587                       # number of ReadReq MSHR misses (Count)
board.cache_hierarchy.iptw_caches.ReadReq.mshrMissLatency::processor.cores.core.mmu.itb.walker    211505000                       # number of ReadReq MSHR miss ticks (Tick)
board.cache_hierarchy.iptw_caches.ReadReq.mshrMissLatency::total    211505000                       # number of ReadReq MSHR miss ticks (Tick)
board.cache_hierarchy.iptw_caches.ReadReq.mshrMissRate::processor.cores.core.mmu.itb.walker     0.114909                       # mshr miss rate for ReadReq accesses (Ratio)
board.cache_hierarchy.iptw_caches.ReadReq.mshrMissRate::total     0.114909                       # mshr miss rate for ReadReq accesses (Ratio)
board.cache_hierarchy.iptw_caches.ReadReq.avgMshrMissLatency::processor.cores.core.mmu.itb.walker 58964.315584                       # average ReadReq mshr miss latency ((Tick/Count))
board.cache_hierarchy.iptw_caches.ReadReq.avgMshrMissLatency::total 58964.315584                       # average ReadReq mshr miss latency ((Tick/Count))
board.cache_hierarchy.iptw_caches.power_state.pwrStateResidencyTicks::UNDEFINED 7408562716000                       # Cumulative time (in ticks) in various power states (Tick)
board.cache_hierarchy.iptw_caches.tags.tagsInUse    68.114506                       # Average ticks per tags in use ((Tick/Count))
board.cache_hierarchy.iptw_caches.tags.totalRefs        31216                       # Total number of references to valid blocks. (Count)
board.cache_hierarchy.iptw_caches.tags.sampledRefs         3587                       # Sample count of references to valid blocks. (Count)
board.cache_hierarchy.iptw_caches.tags.avgRefs     8.702537                       # Average number of references to valid blocks. ((Count/Count))
board.cache_hierarchy.iptw_caches.tags.warmupTick 5408563034000                       # The tick when the warmup percentage was hit. (Tick)
board.cache_hierarchy.iptw_caches.tags.occupancies::processor.cores.core.mmu.itb.walker    68.114506                       # Average occupied blocks per tick, per requestor ((Count/Tick))
board.cache_hierarchy.iptw_caches.tags.avgOccs::processor.cores.core.mmu.itb.walker     0.532145                       # Average percentage of cache occupancy ((Ratio/Tick))
board.cache_hierarchy.iptw_caches.tags.avgOccs::total     0.532145                       # Average percentage of cache occupancy ((Ratio/Tick))
board.cache_hierarchy.iptw_caches.tags.occupanciesTaskId::1024           72                       # Occupied blocks per task id (Count)
board.cache_hierarchy.iptw_caches.tags.ageTaskId_1024::3            7                       # Occupied blocks per task id, per block age (Count)
board.cache_hierarchy.iptw_caches.tags.ageTaskId_1024::4           65                       # Occupied blocks per task id, per block age (Count)
board.cache_hierarchy.iptw_caches.tags.ratioOccsTaskId::1024     0.562500                       # Ratio of occupied blocks and all blocks, per task id (Ratio)
board.cache_hierarchy.iptw_caches.tags.tagAccesses       128451                       # Number of tag accesses (Count)
board.cache_hierarchy.iptw_caches.tags.dataAccesses       128451                       # Number of data accesses (Count)
board.cache_hierarchy.iptw_caches.tags.power_state.pwrStateResidencyTicks::UNDEFINED 7408562716000                       # Cumulative time (in ticks) in various power states (Tick)
board.cache_hierarchy.l1dcaches.demandHits::processor.cores.core.data   1554549079                       # number of demand (read+write) hits (Count)
board.cache_hierarchy.l1dcaches.demandHits::total   1554549079                       # number of demand (read+write) hits (Count)
board.cache_hierarchy.l1dcaches.overallHits::processor.cores.core.data   1554549079                       # number of overall hits (Count)
board.cache_hierarchy.l1dcaches.overallHits::total   1554549079                       # number of overall hits (Count)
board.cache_hierarchy.l1dcaches.demandMisses::processor.cores.core.data      9140134                       # number of demand (read+write) misses (Count)
board.cache_hierarchy.l1dcaches.demandMisses::total      9140134                       # number of demand (read+write) misses (Count)
board.cache_hierarchy.l1dcaches.overallMisses::processor.cores.core.data      9140134                       # number of overall misses (Count)
board.cache_hierarchy.l1dcaches.overallMisses::total      9140134                       # number of overall misses (Count)
board.cache_hierarchy.l1dcaches.demandMissLatency::processor.cores.core.data 664309908391                       # number of demand (read+write) miss ticks (Tick)
board.cache_hierarchy.l1dcaches.demandMissLatency::total 664309908391                       # number of demand (read+write) miss ticks (Tick)
board.cache_hierarchy.l1dcaches.overallMissLatency::processor.cores.core.data 664309908391                       # number of overall miss ticks (Tick)
board.cache_hierarchy.l1dcaches.overallMissLatency::total 664309908391                       # number of overall miss ticks (Tick)
board.cache_hierarchy.l1dcaches.demandAccesses::processor.cores.core.data   1563689213                       # number of demand (read+write) accesses (Count)
board.cache_hierarchy.l1dcaches.demandAccesses::total   1563689213                       # number of demand (read+write) accesses (Count)
board.cache_hierarchy.l1dcaches.overallAccesses::processor.cores.core.data   1563689213                       # number of overall (read+write) accesses (Count)
board.cache_hierarchy.l1dcaches.overallAccesses::total   1563689213                       # number of overall (read+write) accesses (Count)
board.cache_hierarchy.l1dcaches.demandMissRate::processor.cores.core.data     0.005845                       # miss rate for demand accesses (Ratio)
board.cache_hierarchy.l1dcaches.demandMissRate::total     0.005845                       # miss rate for demand accesses (Ratio)
board.cache_hierarchy.l1dcaches.overallMissRate::processor.cores.core.data     0.005845                       # miss rate for overall accesses (Ratio)
board.cache_hierarchy.l1dcaches.overallMissRate::total     0.005845                       # miss rate for overall accesses (Ratio)
board.cache_hierarchy.l1dcaches.demandAvgMissLatency::processor.cores.core.data 72680.543676                       # average overall miss latency in ticks ((Tick/Count))
board.cache_hierarchy.l1dcaches.demandAvgMissLatency::total 72680.543676                       # average overall miss latency in ticks ((Tick/Count))
board.cache_hierarchy.l1dcaches.overallAvgMissLatency::processor.cores.core.data 72680.543676                       # average overall miss latency ((Tick/Count))
board.cache_hierarchy.l1dcaches.overallAvgMissLatency::total 72680.543676                       # average overall miss latency ((Tick/Count))
board.cache_hierarchy.l1dcaches.blockedCycles::no_mshrs        20882                       # number of cycles access was blocked (Cycle)
board.cache_hierarchy.l1dcaches.blockedCycles::no_targets         7245                       # number of cycles access was blocked (Cycle)
board.cache_hierarchy.l1dcaches.blockedCauses::no_mshrs         5198                       # number of times access was blocked (Count)
board.cache_hierarchy.l1dcaches.blockedCauses::no_targets          183                       # number of times access was blocked (Count)
board.cache_hierarchy.l1dcaches.avgBlocked::no_mshrs     4.017314                       # average number of cycles each access was blocked ((Cycle/Count))
board.cache_hierarchy.l1dcaches.avgBlocked::no_targets    39.590164                       # average number of cycles each access was blocked ((Cycle/Count))
board.cache_hierarchy.l1dcaches.writebacks::writebacks      2700567                       # number of writebacks (Count)
board.cache_hierarchy.l1dcaches.writebacks::total      2700567                       # number of writebacks (Count)
board.cache_hierarchy.l1dcaches.demandMshrHits::processor.cores.core.data      7679145                       # number of demand (read+write) MSHR hits (Count)
board.cache_hierarchy.l1dcaches.demandMshrHits::total      7679145                       # number of demand (read+write) MSHR hits (Count)
board.cache_hierarchy.l1dcaches.overallMshrHits::processor.cores.core.data      7679145                       # number of overall MSHR hits (Count)
board.cache_hierarchy.l1dcaches.overallMshrHits::total      7679145                       # number of overall MSHR hits (Count)
board.cache_hierarchy.l1dcaches.demandMshrMisses::processor.cores.core.data      1460989                       # number of demand (read+write) MSHR misses (Count)
board.cache_hierarchy.l1dcaches.demandMshrMisses::total      1460989                       # number of demand (read+write) MSHR misses (Count)
board.cache_hierarchy.l1dcaches.overallMshrMisses::cache_hierarchy.l1dcaches.prefetcher      1685730                       # number of overall MSHR misses (Count)
board.cache_hierarchy.l1dcaches.overallMshrMisses::processor.cores.core.data      1460989                       # number of overall MSHR misses (Count)
board.cache_hierarchy.l1dcaches.overallMshrMisses::total      3146719                       # number of overall MSHR misses (Count)
board.cache_hierarchy.l1dcaches.overallMshrUncacheable::processor.cores.core.data         5023                       # number of overall MSHR uncacheable misses (Count)
board.cache_hierarchy.l1dcaches.overallMshrUncacheable::total         5023                       # number of overall MSHR uncacheable misses (Count)
board.cache_hierarchy.l1dcaches.demandMshrMissLatency::processor.cores.core.data  90499487961                       # number of demand (read+write) MSHR miss ticks (Tick)
board.cache_hierarchy.l1dcaches.demandMshrMissLatency::total  90499487961                       # number of demand (read+write) MSHR miss ticks (Tick)
board.cache_hierarchy.l1dcaches.overallMshrMissLatency::cache_hierarchy.l1dcaches.prefetcher 164928024812                       # number of overall MSHR miss ticks (Tick)
board.cache_hierarchy.l1dcaches.overallMshrMissLatency::processor.cores.core.data  90499487961                       # number of overall MSHR miss ticks (Tick)
board.cache_hierarchy.l1dcaches.overallMshrMissLatency::total 255427512773                       # number of overall MSHR miss ticks (Tick)
board.cache_hierarchy.l1dcaches.overallMshrUncacheableLatency::processor.cores.core.data    392866000                       # number of overall MSHR uncacheable ticks (Tick)
board.cache_hierarchy.l1dcaches.overallMshrUncacheableLatency::total    392866000                       # number of overall MSHR uncacheable ticks (Tick)
board.cache_hierarchy.l1dcaches.demandMshrMissRate::processor.cores.core.data     0.000934                       # mshr miss ratio for demand accesses (Ratio)
board.cache_hierarchy.l1dcaches.demandMshrMissRate::total     0.000934                       # mshr miss ratio for demand accesses (Ratio)
board.cache_hierarchy.l1dcaches.overallMshrMissRate::cache_hierarchy.l1dcaches.prefetcher          inf                       # mshr miss ratio for overall accesses (Ratio)
board.cache_hierarchy.l1dcaches.overallMshrMissRate::processor.cores.core.data     0.000934                       # mshr miss ratio for overall accesses (Ratio)
board.cache_hierarchy.l1dcaches.overallMshrMissRate::total     0.002012                       # mshr miss ratio for overall accesses (Ratio)
board.cache_hierarchy.l1dcaches.demandAvgMshrMissLatency::processor.cores.core.data 61943.989969                       # average overall mshr miss latency ((Tick/Count))
board.cache_hierarchy.l1dcaches.demandAvgMshrMissLatency::total 61943.989969                       # average overall mshr miss latency ((Tick/Count))
board.cache_hierarchy.l1dcaches.overallAvgMshrMissLatency::cache_hierarchy.l1dcaches.prefetcher 97837.746740                       # average overall mshr miss latency ((Tick/Count))
board.cache_hierarchy.l1dcaches.overallAvgMshrMissLatency::processor.cores.core.data 61943.989969                       # average overall mshr miss latency ((Tick/Count))
board.cache_hierarchy.l1dcaches.overallAvgMshrMissLatency::total 81172.647692                       # average overall mshr miss latency ((Tick/Count))
board.cache_hierarchy.l1dcaches.overallAvgMshrUncacheableLatency::processor.cores.core.data 78213.418276                       # average overall mshr uncacheable latency ((Tick/Count))
board.cache_hierarchy.l1dcaches.overallAvgMshrUncacheableLatency::total 78213.418276                       # average overall mshr uncacheable latency ((Tick/Count))
board.cache_hierarchy.l1dcaches.replacements      3140330                       # number of replacements (Count)
board.cache_hierarchy.l1dcaches.HardPFReq.mshrMisses::cache_hierarchy.l1dcaches.prefetcher      1685730                       # number of HardPFReq MSHR misses (Count)
board.cache_hierarchy.l1dcaches.HardPFReq.mshrMisses::total      1685730                       # number of HardPFReq MSHR misses (Count)
board.cache_hierarchy.l1dcaches.HardPFReq.mshrMissLatency::cache_hierarchy.l1dcaches.prefetcher 164928024812                       # number of HardPFReq MSHR miss ticks (Tick)
board.cache_hierarchy.l1dcaches.HardPFReq.mshrMissLatency::total 164928024812                       # number of HardPFReq MSHR miss ticks (Tick)
board.cache_hierarchy.l1dcaches.HardPFReq.mshrMissRate::cache_hierarchy.l1dcaches.prefetcher          inf                       # mshr miss rate for HardPFReq accesses (Ratio)
board.cache_hierarchy.l1dcaches.HardPFReq.mshrMissRate::total          inf                       # mshr miss rate for HardPFReq accesses (Ratio)
board.cache_hierarchy.l1dcaches.HardPFReq.avgMshrMissLatency::cache_hierarchy.l1dcaches.prefetcher 97837.746740                       # average HardPFReq mshr miss latency ((Tick/Count))
board.cache_hierarchy.l1dcaches.HardPFReq.avgMshrMissLatency::total 97837.746740                       # average HardPFReq mshr miss latency ((Tick/Count))
board.cache_hierarchy.l1dcaches.LoadLockedReq.hits::processor.cores.core.data        13573                       # number of LoadLockedReq hits (Count)
board.cache_hierarchy.l1dcaches.LoadLockedReq.hits::total        13573                       # number of LoadLockedReq hits (Count)
board.cache_hierarchy.l1dcaches.LoadLockedReq.misses::processor.cores.core.data         8304                       # number of LoadLockedReq misses (Count)
board.cache_hierarchy.l1dcaches.LoadLockedReq.misses::total         8304                       # number of LoadLockedReq misses (Count)
board.cache_hierarchy.l1dcaches.LoadLockedReq.missLatency::processor.cores.core.data    314246000                       # number of LoadLockedReq miss ticks (Tick)
board.cache_hierarchy.l1dcaches.LoadLockedReq.missLatency::total    314246000                       # number of LoadLockedReq miss ticks (Tick)
board.cache_hierarchy.l1dcaches.LoadLockedReq.accesses::processor.cores.core.data        21877                       # number of LoadLockedReq accesses(hits+misses) (Count)
board.cache_hierarchy.l1dcaches.LoadLockedReq.accesses::total        21877                       # number of LoadLockedReq accesses(hits+misses) (Count)
board.cache_hierarchy.l1dcaches.LoadLockedReq.missRate::processor.cores.core.data     0.379577                       # miss rate for LoadLockedReq accesses (Ratio)
board.cache_hierarchy.l1dcaches.LoadLockedReq.missRate::total     0.379577                       # miss rate for LoadLockedReq accesses (Ratio)
board.cache_hierarchy.l1dcaches.LoadLockedReq.avgMissLatency::processor.cores.core.data 37842.726397                       # average LoadLockedReq miss latency ((Tick/Count))
board.cache_hierarchy.l1dcaches.LoadLockedReq.avgMissLatency::total 37842.726397                       # average LoadLockedReq miss latency ((Tick/Count))
board.cache_hierarchy.l1dcaches.LoadLockedReq.mshrHits::processor.cores.core.data         1923                       # number of LoadLockedReq MSHR hits (Count)
board.cache_hierarchy.l1dcaches.LoadLockedReq.mshrHits::total         1923                       # number of LoadLockedReq MSHR hits (Count)
board.cache_hierarchy.l1dcaches.LoadLockedReq.mshrMisses::processor.cores.core.data         6381                       # number of LoadLockedReq MSHR misses (Count)
board.cache_hierarchy.l1dcaches.LoadLockedReq.mshrMisses::total         6381                       # number of LoadLockedReq MSHR misses (Count)
board.cache_hierarchy.l1dcaches.LoadLockedReq.mshrMissLatency::processor.cores.core.data    239906000                       # number of LoadLockedReq MSHR miss ticks (Tick)
board.cache_hierarchy.l1dcaches.LoadLockedReq.mshrMissLatency::total    239906000                       # number of LoadLockedReq MSHR miss ticks (Tick)
board.cache_hierarchy.l1dcaches.LoadLockedReq.mshrMissRate::processor.cores.core.data     0.291676                       # mshr miss rate for LoadLockedReq accesses (Ratio)
board.cache_hierarchy.l1dcaches.LoadLockedReq.mshrMissRate::total     0.291676                       # mshr miss rate for LoadLockedReq accesses (Ratio)
board.cache_hierarchy.l1dcaches.LoadLockedReq.avgMshrMissLatency::processor.cores.core.data 37596.928381                       # average LoadLockedReq mshr miss latency ((Tick/Count))
board.cache_hierarchy.l1dcaches.LoadLockedReq.avgMshrMissLatency::total 37596.928381                       # average LoadLockedReq mshr miss latency ((Tick/Count))
board.cache_hierarchy.l1dcaches.ReadReq.hits::processor.cores.core.data    789630619                       # number of ReadReq hits (Count)
board.cache_hierarchy.l1dcaches.ReadReq.hits::total    789630619                       # number of ReadReq hits (Count)
board.cache_hierarchy.l1dcaches.ReadReq.misses::processor.cores.core.data      1274804                       # number of ReadReq misses (Count)
board.cache_hierarchy.l1dcaches.ReadReq.misses::total      1274804                       # number of ReadReq misses (Count)
board.cache_hierarchy.l1dcaches.ReadReq.missLatency::processor.cores.core.data  57446706000                       # number of ReadReq miss ticks (Tick)
board.cache_hierarchy.l1dcaches.ReadReq.missLatency::total  57446706000                       # number of ReadReq miss ticks (Tick)
board.cache_hierarchy.l1dcaches.ReadReq.accesses::processor.cores.core.data    790905423                       # number of ReadReq accesses(hits+misses) (Count)
board.cache_hierarchy.l1dcaches.ReadReq.accesses::total    790905423                       # number of ReadReq accesses(hits+misses) (Count)
board.cache_hierarchy.l1dcaches.ReadReq.missRate::processor.cores.core.data     0.001612                       # miss rate for ReadReq accesses (Ratio)
board.cache_hierarchy.l1dcaches.ReadReq.missRate::total     0.001612                       # miss rate for ReadReq accesses (Ratio)
board.cache_hierarchy.l1dcaches.ReadReq.avgMissLatency::processor.cores.core.data 45063.167357                       # average ReadReq miss latency ((Tick/Count))
board.cache_hierarchy.l1dcaches.ReadReq.avgMissLatency::total 45063.167357                       # average ReadReq miss latency ((Tick/Count))
board.cache_hierarchy.l1dcaches.ReadReq.mshrHits::processor.cores.core.data       779995                       # number of ReadReq MSHR hits (Count)
board.cache_hierarchy.l1dcaches.ReadReq.mshrHits::total       779995                       # number of ReadReq MSHR hits (Count)
board.cache_hierarchy.l1dcaches.ReadReq.mshrMisses::processor.cores.core.data       494809                       # number of ReadReq MSHR misses (Count)
board.cache_hierarchy.l1dcaches.ReadReq.mshrMisses::total       494809                       # number of ReadReq MSHR misses (Count)
board.cache_hierarchy.l1dcaches.ReadReq.mshrUncacheable::processor.cores.core.data         2988                       # number of ReadReq MSHR uncacheable (Count)
board.cache_hierarchy.l1dcaches.ReadReq.mshrUncacheable::total         2988                       # number of ReadReq MSHR uncacheable (Count)
board.cache_hierarchy.l1dcaches.ReadReq.mshrMissLatency::processor.cores.core.data  17245232000                       # number of ReadReq MSHR miss ticks (Tick)
board.cache_hierarchy.l1dcaches.ReadReq.mshrMissLatency::total  17245232000                       # number of ReadReq MSHR miss ticks (Tick)
board.cache_hierarchy.l1dcaches.ReadReq.mshrUncacheableLatency::processor.cores.core.data    392866000                       # number of ReadReq MSHR uncacheable ticks (Tick)
board.cache_hierarchy.l1dcaches.ReadReq.mshrUncacheableLatency::total    392866000                       # number of ReadReq MSHR uncacheable ticks (Tick)
board.cache_hierarchy.l1dcaches.ReadReq.mshrMissRate::processor.cores.core.data     0.000626                       # mshr miss rate for ReadReq accesses (Ratio)
board.cache_hierarchy.l1dcaches.ReadReq.mshrMissRate::total     0.000626                       # mshr miss rate for ReadReq accesses (Ratio)
board.cache_hierarchy.l1dcaches.ReadReq.avgMshrMissLatency::processor.cores.core.data 34852.300585                       # average ReadReq mshr miss latency ((Tick/Count))
board.cache_hierarchy.l1dcaches.ReadReq.avgMshrMissLatency::total 34852.300585                       # average ReadReq mshr miss latency ((Tick/Count))
board.cache_hierarchy.l1dcaches.ReadReq.avgMshrUncacheableLatency::processor.cores.core.data 131481.258367                       # average ReadReq mshr uncacheable latency ((Tick/Count))
board.cache_hierarchy.l1dcaches.ReadReq.avgMshrUncacheableLatency::total 131481.258367                       # average ReadReq mshr uncacheable latency ((Tick/Count))
board.cache_hierarchy.l1dcaches.StoreCondReq.hits::processor.cores.core.data        20805                       # number of StoreCondReq hits (Count)
board.cache_hierarchy.l1dcaches.StoreCondReq.hits::total        20805                       # number of StoreCondReq hits (Count)
board.cache_hierarchy.l1dcaches.StoreCondReq.accesses::processor.cores.core.data        20805                       # number of StoreCondReq accesses(hits+misses) (Count)
board.cache_hierarchy.l1dcaches.StoreCondReq.accesses::total        20805                       # number of StoreCondReq accesses(hits+misses) (Count)
board.cache_hierarchy.l1dcaches.SwapReq.hits::processor.cores.core.data       374457                       # number of SwapReq hits (Count)
board.cache_hierarchy.l1dcaches.SwapReq.hits::total       374457                       # number of SwapReq hits (Count)
board.cache_hierarchy.l1dcaches.SwapReq.misses::processor.cores.core.data        25422                       # number of SwapReq misses (Count)
board.cache_hierarchy.l1dcaches.SwapReq.misses::total        25422                       # number of SwapReq misses (Count)
board.cache_hierarchy.l1dcaches.SwapReq.missLatency::processor.cores.core.data    496795000                       # number of SwapReq miss ticks (Tick)
board.cache_hierarchy.l1dcaches.SwapReq.missLatency::total    496795000                       # number of SwapReq miss ticks (Tick)
board.cache_hierarchy.l1dcaches.SwapReq.accesses::processor.cores.core.data       399879                       # number of SwapReq accesses(hits+misses) (Count)
board.cache_hierarchy.l1dcaches.SwapReq.accesses::total       399879                       # number of SwapReq accesses(hits+misses) (Count)
board.cache_hierarchy.l1dcaches.SwapReq.missRate::processor.cores.core.data     0.063574                       # miss rate for SwapReq accesses (Ratio)
board.cache_hierarchy.l1dcaches.SwapReq.missRate::total     0.063574                       # miss rate for SwapReq accesses (Ratio)
board.cache_hierarchy.l1dcaches.SwapReq.avgMissLatency::processor.cores.core.data 19541.932185                       # average SwapReq miss latency ((Tick/Count))
board.cache_hierarchy.l1dcaches.SwapReq.avgMissLatency::total 19541.932185                       # average SwapReq miss latency ((Tick/Count))
board.cache_hierarchy.l1dcaches.SwapReq.mshrHits::processor.cores.core.data           18                       # number of SwapReq MSHR hits (Count)
board.cache_hierarchy.l1dcaches.SwapReq.mshrHits::total           18                       # number of SwapReq MSHR hits (Count)
board.cache_hierarchy.l1dcaches.SwapReq.mshrMisses::processor.cores.core.data        25404                       # number of SwapReq MSHR misses (Count)
board.cache_hierarchy.l1dcaches.SwapReq.mshrMisses::total        25404                       # number of SwapReq MSHR misses (Count)
board.cache_hierarchy.l1dcaches.SwapReq.mshrUncacheable::processor.cores.core.data          784                       # number of SwapReq MSHR uncacheable (Count)
board.cache_hierarchy.l1dcaches.SwapReq.mshrUncacheable::total          784                       # number of SwapReq MSHR uncacheable (Count)
board.cache_hierarchy.l1dcaches.SwapReq.mshrMissLatency::processor.cores.core.data    470366000                       # number of SwapReq MSHR miss ticks (Tick)
board.cache_hierarchy.l1dcaches.SwapReq.mshrMissLatency::total    470366000                       # number of SwapReq MSHR miss ticks (Tick)
board.cache_hierarchy.l1dcaches.SwapReq.mshrMissRate::processor.cores.core.data     0.063529                       # mshr miss rate for SwapReq accesses (Ratio)
board.cache_hierarchy.l1dcaches.SwapReq.mshrMissRate::total     0.063529                       # mshr miss rate for SwapReq accesses (Ratio)
board.cache_hierarchy.l1dcaches.SwapReq.avgMshrMissLatency::processor.cores.core.data 18515.430641                       # average SwapReq mshr miss latency ((Tick/Count))
board.cache_hierarchy.l1dcaches.SwapReq.avgMshrMissLatency::total 18515.430641                       # average SwapReq mshr miss latency ((Tick/Count))
board.cache_hierarchy.l1dcaches.WriteReq.hits::processor.cores.core.data    764918460                       # number of WriteReq hits (Count)
board.cache_hierarchy.l1dcaches.WriteReq.hits::total    764918460                       # number of WriteReq hits (Count)
board.cache_hierarchy.l1dcaches.WriteReq.misses::processor.cores.core.data      7865330                       # number of WriteReq misses (Count)
board.cache_hierarchy.l1dcaches.WriteReq.misses::total      7865330                       # number of WriteReq misses (Count)
board.cache_hierarchy.l1dcaches.WriteReq.missLatency::processor.cores.core.data 606863202391                       # number of WriteReq miss ticks (Tick)
board.cache_hierarchy.l1dcaches.WriteReq.missLatency::total 606863202391                       # number of WriteReq miss ticks (Tick)
board.cache_hierarchy.l1dcaches.WriteReq.accesses::processor.cores.core.data    772783790                       # number of WriteReq accesses(hits+misses) (Count)
board.cache_hierarchy.l1dcaches.WriteReq.accesses::total    772783790                       # number of WriteReq accesses(hits+misses) (Count)
board.cache_hierarchy.l1dcaches.WriteReq.missRate::processor.cores.core.data     0.010178                       # miss rate for WriteReq accesses (Ratio)
board.cache_hierarchy.l1dcaches.WriteReq.missRate::total     0.010178                       # miss rate for WriteReq accesses (Ratio)
board.cache_hierarchy.l1dcaches.WriteReq.avgMissLatency::processor.cores.core.data 77156.737529                       # average WriteReq miss latency ((Tick/Count))
board.cache_hierarchy.l1dcaches.WriteReq.avgMissLatency::total 77156.737529                       # average WriteReq miss latency ((Tick/Count))
board.cache_hierarchy.l1dcaches.WriteReq.mshrHits::processor.cores.core.data      6899150                       # number of WriteReq MSHR hits (Count)
board.cache_hierarchy.l1dcaches.WriteReq.mshrHits::total      6899150                       # number of WriteReq MSHR hits (Count)
board.cache_hierarchy.l1dcaches.WriteReq.mshrMisses::processor.cores.core.data       966180                       # number of WriteReq MSHR misses (Count)
board.cache_hierarchy.l1dcaches.WriteReq.mshrMisses::total       966180                       # number of WriteReq MSHR misses (Count)
board.cache_hierarchy.l1dcaches.WriteReq.mshrUncacheable::processor.cores.core.data         2035                       # number of WriteReq MSHR uncacheable (Count)
board.cache_hierarchy.l1dcaches.WriteReq.mshrUncacheable::total         2035                       # number of WriteReq MSHR uncacheable (Count)
board.cache_hierarchy.l1dcaches.WriteReq.mshrMissLatency::processor.cores.core.data  73254255961                       # number of WriteReq MSHR miss ticks (Tick)
board.cache_hierarchy.l1dcaches.WriteReq.mshrMissLatency::total  73254255961                       # number of WriteReq MSHR miss ticks (Tick)
board.cache_hierarchy.l1dcaches.WriteReq.mshrMissRate::processor.cores.core.data     0.001250                       # mshr miss rate for WriteReq accesses (Ratio)
board.cache_hierarchy.l1dcaches.WriteReq.mshrMissRate::total     0.001250                       # mshr miss rate for WriteReq accesses (Ratio)
board.cache_hierarchy.l1dcaches.WriteReq.avgMshrMissLatency::processor.cores.core.data 75818.435448                       # average WriteReq mshr miss latency ((Tick/Count))
board.cache_hierarchy.l1dcaches.WriteReq.avgMshrMissLatency::total 75818.435448                       # average WriteReq mshr miss latency ((Tick/Count))
board.cache_hierarchy.l1dcaches.power_state.pwrStateResidencyTicks::UNDEFINED 7408562716000                       # Cumulative time (in ticks) in various power states (Tick)
board.cache_hierarchy.l1dcaches.prefetcher.demandMshrMisses      1460989                       # demands not covered by prefetchs (Count)
board.cache_hierarchy.l1dcaches.prefetcher.pfIssued      3035366                       # number of hwpf issued (Count)
board.cache_hierarchy.l1dcaches.prefetcher.pfUnused        41692                       # number of HardPF blocks evicted w/o reference (Count)
board.cache_hierarchy.l1dcaches.prefetcher.pfUseful      1539466                       # number of useful prefetch (Count)
board.cache_hierarchy.l1dcaches.prefetcher.pfUsefulButMiss          839                       # number of hit on prefetch but cache block is not in an usable state (Count)
board.cache_hierarchy.l1dcaches.prefetcher.accuracy     0.507176                       # accuracy of the prefetcher (Count)
board.cache_hierarchy.l1dcaches.prefetcher.coverage     0.513078                       # coverage brought by this prefetcher (Count)
board.cache_hierarchy.l1dcaches.prefetcher.pfHitInCache       576003                       # number of prefetches hitting in cache (Count)
board.cache_hierarchy.l1dcaches.prefetcher.pfHitInMSHR       773633                       # number of prefetches hitting in a MSHR (Count)
board.cache_hierarchy.l1dcaches.prefetcher.pfHitInWB            0                       # number of prefetches hit in the Write Buffer (Count)
board.cache_hierarchy.l1dcaches.prefetcher.pfLate      1349636                       # number of late prefetches (hitting in cache, MSHR or WB) (Count)
board.cache_hierarchy.l1dcaches.prefetcher.pfIdentified      7047110                       # number of prefetch candidates identified (Count)
board.cache_hierarchy.l1dcaches.prefetcher.pfBufferHit      2881023                       # number of redundant prefetches already in prefetch queue (Count)
board.cache_hierarchy.l1dcaches.prefetcher.pfInCache            0                       # number of redundant prefetches already in cache/mshr dropped (Count)
board.cache_hierarchy.l1dcaches.prefetcher.pfRemovedDemand         5269                       # number of prefetches dropped due to a demand for the same address (Count)
board.cache_hierarchy.l1dcaches.prefetcher.pfRemovedFull            0                       # number of prefetches dropped due to prefetch queue size (Count)
board.cache_hierarchy.l1dcaches.prefetcher.pfSpanPage      2764582                       # number of prefetches that crossed the page (Count)
board.cache_hierarchy.l1dcaches.prefetcher.pfUsefulSpanPage          438                       # number of prefetches that is useful and crossed the page (Count)
board.cache_hierarchy.l1dcaches.prefetcher.power_state.pwrStateResidencyTicks::UNDEFINED 7408562716000                       # Cumulative time (in ticks) in various power states (Tick)
board.cache_hierarchy.l1dcaches.tags.tagsInUse   511.990467                       # Average ticks per tags in use ((Tick/Count))
board.cache_hierarchy.l1dcaches.tags.totalRefs   1558136790                       # Total number of references to valid blocks. (Count)
board.cache_hierarchy.l1dcaches.tags.sampledRefs      3140981                       # Sample count of references to valid blocks. (Count)
board.cache_hierarchy.l1dcaches.tags.avgRefs   496.066926                       # Average number of references to valid blocks. ((Count/Count))
board.cache_hierarchy.l1dcaches.tags.warmupTick 5408562964000                       # The tick when the warmup percentage was hit. (Tick)
board.cache_hierarchy.l1dcaches.tags.occupancies::cache_hierarchy.l1dcaches.prefetcher   189.503880                       # Average occupied blocks per tick, per requestor ((Count/Tick))
board.cache_hierarchy.l1dcaches.tags.occupancies::processor.cores.core.data   322.486587                       # Average occupied blocks per tick, per requestor ((Count/Tick))
board.cache_hierarchy.l1dcaches.tags.avgOccs::cache_hierarchy.l1dcaches.prefetcher     0.370125                       # Average percentage of cache occupancy ((Ratio/Tick))
board.cache_hierarchy.l1dcaches.tags.avgOccs::processor.cores.core.data     0.629857                       # Average percentage of cache occupancy ((Ratio/Tick))
board.cache_hierarchy.l1dcaches.tags.avgOccs::total     0.999981                       # Average percentage of cache occupancy ((Ratio/Tick))
board.cache_hierarchy.l1dcaches.tags.occupanciesTaskId::1022          272                       # Occupied blocks per task id (Count)
board.cache_hierarchy.l1dcaches.tags.occupanciesTaskId::1024          240                       # Occupied blocks per task id (Count)
board.cache_hierarchy.l1dcaches.tags.ageTaskId_1022::1          186                       # Occupied blocks per task id, per block age (Count)
board.cache_hierarchy.l1dcaches.tags.ageTaskId_1022::2           86                       # Occupied blocks per task id, per block age (Count)
board.cache_hierarchy.l1dcaches.tags.ageTaskId_1024::1          139                       # Occupied blocks per task id, per block age (Count)
board.cache_hierarchy.l1dcaches.tags.ageTaskId_1024::2           45                       # Occupied blocks per task id, per block age (Count)
board.cache_hierarchy.l1dcaches.tags.ageTaskId_1024::3           53                       # Occupied blocks per task id, per block age (Count)
board.cache_hierarchy.l1dcaches.tags.ageTaskId_1024::4            3                       # Occupied blocks per task id, per block age (Count)
board.cache_hierarchy.l1dcaches.tags.ratioOccsTaskId::1022     0.531250                       # Ratio of occupied blocks and all blocks, per task id (Ratio)
board.cache_hierarchy.l1dcaches.tags.ratioOccsTaskId::1024     0.468750                       # Ratio of occupied blocks and all blocks, per task id (Ratio)
board.cache_hierarchy.l1dcaches.tags.tagAccesses  12516195173                       # Number of tag accesses (Count)
board.cache_hierarchy.l1dcaches.tags.dataAccesses  12516195173                       # Number of data accesses (Count)
board.cache_hierarchy.l1dcaches.tags.power_state.pwrStateResidencyTicks::UNDEFINED 7408562716000                       # Cumulative time (in ticks) in various power states (Tick)
board.cache_hierarchy.l1icaches.demandHits::processor.cores.core.inst    550631277                       # number of demand (read+write) hits (Count)
board.cache_hierarchy.l1icaches.demandHits::total    550631277                       # number of demand (read+write) hits (Count)
board.cache_hierarchy.l1icaches.overallHits::processor.cores.core.inst    550631277                       # number of overall hits (Count)
board.cache_hierarchy.l1icaches.overallHits::total    550631277                       # number of overall hits (Count)
board.cache_hierarchy.l1icaches.demandMisses::processor.cores.core.inst       381866                       # number of demand (read+write) misses (Count)
board.cache_hierarchy.l1icaches.demandMisses::total       381866                       # number of demand (read+write) misses (Count)
board.cache_hierarchy.l1icaches.overallMisses::processor.cores.core.inst       381866                       # number of overall misses (Count)
board.cache_hierarchy.l1icaches.overallMisses::total       381866                       # number of overall misses (Count)
board.cache_hierarchy.l1icaches.demandMissLatency::processor.cores.core.inst  15077103000                       # number of demand (read+write) miss ticks (Tick)
board.cache_hierarchy.l1icaches.demandMissLatency::total  15077103000                       # number of demand (read+write) miss ticks (Tick)
board.cache_hierarchy.l1icaches.overallMissLatency::processor.cores.core.inst  15077103000                       # number of overall miss ticks (Tick)
board.cache_hierarchy.l1icaches.overallMissLatency::total  15077103000                       # number of overall miss ticks (Tick)
board.cache_hierarchy.l1icaches.demandAccesses::processor.cores.core.inst    551013143                       # number of demand (read+write) accesses (Count)
board.cache_hierarchy.l1icaches.demandAccesses::total    551013143                       # number of demand (read+write) accesses (Count)
board.cache_hierarchy.l1icaches.overallAccesses::processor.cores.core.inst    551013143                       # number of overall (read+write) accesses (Count)
board.cache_hierarchy.l1icaches.overallAccesses::total    551013143                       # number of overall (read+write) accesses (Count)
board.cache_hierarchy.l1icaches.demandMissRate::processor.cores.core.inst     0.000693                       # miss rate for demand accesses (Ratio)
board.cache_hierarchy.l1icaches.demandMissRate::total     0.000693                       # miss rate for demand accesses (Ratio)
board.cache_hierarchy.l1icaches.overallMissRate::processor.cores.core.inst     0.000693                       # miss rate for overall accesses (Ratio)
board.cache_hierarchy.l1icaches.overallMissRate::total     0.000693                       # miss rate for overall accesses (Ratio)
board.cache_hierarchy.l1icaches.demandAvgMissLatency::processor.cores.core.inst 39482.705975                       # average overall miss latency in ticks ((Tick/Count))
board.cache_hierarchy.l1icaches.demandAvgMissLatency::total 39482.705975                       # average overall miss latency in ticks ((Tick/Count))
board.cache_hierarchy.l1icaches.overallAvgMissLatency::processor.cores.core.inst 39482.705975                       # average overall miss latency ((Tick/Count))
board.cache_hierarchy.l1icaches.overallAvgMissLatency::total 39482.705975                       # average overall miss latency ((Tick/Count))
board.cache_hierarchy.l1icaches.blockedCycles::no_mshrs            0                       # number of cycles access was blocked (Cycle)
board.cache_hierarchy.l1icaches.blockedCycles::no_targets            0                       # number of cycles access was blocked (Cycle)
board.cache_hierarchy.l1icaches.blockedCauses::no_mshrs            0                       # number of times access was blocked (Count)
board.cache_hierarchy.l1icaches.blockedCauses::no_targets            0                       # number of times access was blocked (Count)
board.cache_hierarchy.l1icaches.avgBlocked::no_mshrs          nan                       # average number of cycles each access was blocked ((Cycle/Count))
board.cache_hierarchy.l1icaches.avgBlocked::no_targets          nan                       # average number of cycles each access was blocked ((Cycle/Count))
board.cache_hierarchy.l1icaches.demandMshrHits::processor.cores.core.inst        54361                       # number of demand (read+write) MSHR hits (Count)
board.cache_hierarchy.l1icaches.demandMshrHits::total        54361                       # number of demand (read+write) MSHR hits (Count)
board.cache_hierarchy.l1icaches.overallMshrHits::processor.cores.core.inst        54361                       # number of overall MSHR hits (Count)
board.cache_hierarchy.l1icaches.overallMshrHits::total        54361                       # number of overall MSHR hits (Count)
board.cache_hierarchy.l1icaches.demandMshrMisses::processor.cores.core.inst       327505                       # number of demand (read+write) MSHR misses (Count)
board.cache_hierarchy.l1icaches.demandMshrMisses::total       327505                       # number of demand (read+write) MSHR misses (Count)
board.cache_hierarchy.l1icaches.overallMshrMisses::processor.cores.core.inst       327505                       # number of overall MSHR misses (Count)
board.cache_hierarchy.l1icaches.overallMshrMisses::total       327505                       # number of overall MSHR misses (Count)
board.cache_hierarchy.l1icaches.demandMshrMissLatency::processor.cores.core.inst  12587278000                       # number of demand (read+write) MSHR miss ticks (Tick)
board.cache_hierarchy.l1icaches.demandMshrMissLatency::total  12587278000                       # number of demand (read+write) MSHR miss ticks (Tick)
board.cache_hierarchy.l1icaches.overallMshrMissLatency::processor.cores.core.inst  12587278000                       # number of overall MSHR miss ticks (Tick)
board.cache_hierarchy.l1icaches.overallMshrMissLatency::total  12587278000                       # number of overall MSHR miss ticks (Tick)
board.cache_hierarchy.l1icaches.demandMshrMissRate::processor.cores.core.inst     0.000594                       # mshr miss ratio for demand accesses (Ratio)
board.cache_hierarchy.l1icaches.demandMshrMissRate::total     0.000594                       # mshr miss ratio for demand accesses (Ratio)
board.cache_hierarchy.l1icaches.overallMshrMissRate::processor.cores.core.inst     0.000594                       # mshr miss ratio for overall accesses (Ratio)
board.cache_hierarchy.l1icaches.overallMshrMissRate::total     0.000594                       # mshr miss ratio for overall accesses (Ratio)
board.cache_hierarchy.l1icaches.demandAvgMshrMissLatency::processor.cores.core.inst 38433.849865                       # average overall mshr miss latency ((Tick/Count))
board.cache_hierarchy.l1icaches.demandAvgMshrMissLatency::total 38433.849865                       # average overall mshr miss latency ((Tick/Count))
board.cache_hierarchy.l1icaches.overallAvgMshrMissLatency::processor.cores.core.inst 38433.849865                       # average overall mshr miss latency ((Tick/Count))
board.cache_hierarchy.l1icaches.overallAvgMshrMissLatency::total 38433.849865                       # average overall mshr miss latency ((Tick/Count))
board.cache_hierarchy.l1icaches.replacements       326993                       # number of replacements (Count)
board.cache_hierarchy.l1icaches.ReadReq.hits::processor.cores.core.inst    550631277                       # number of ReadReq hits (Count)
board.cache_hierarchy.l1icaches.ReadReq.hits::total    550631277                       # number of ReadReq hits (Count)
board.cache_hierarchy.l1icaches.ReadReq.misses::processor.cores.core.inst       381866                       # number of ReadReq misses (Count)
board.cache_hierarchy.l1icaches.ReadReq.misses::total       381866                       # number of ReadReq misses (Count)
board.cache_hierarchy.l1icaches.ReadReq.missLatency::processor.cores.core.inst  15077103000                       # number of ReadReq miss ticks (Tick)
board.cache_hierarchy.l1icaches.ReadReq.missLatency::total  15077103000                       # number of ReadReq miss ticks (Tick)
board.cache_hierarchy.l1icaches.ReadReq.accesses::processor.cores.core.inst    551013143                       # number of ReadReq accesses(hits+misses) (Count)
board.cache_hierarchy.l1icaches.ReadReq.accesses::total    551013143                       # number of ReadReq accesses(hits+misses) (Count)
board.cache_hierarchy.l1icaches.ReadReq.missRate::processor.cores.core.inst     0.000693                       # miss rate for ReadReq accesses (Ratio)
board.cache_hierarchy.l1icaches.ReadReq.missRate::total     0.000693                       # miss rate for ReadReq accesses (Ratio)
board.cache_hierarchy.l1icaches.ReadReq.avgMissLatency::processor.cores.core.inst 39482.705975                       # average ReadReq miss latency ((Tick/Count))
board.cache_hierarchy.l1icaches.ReadReq.avgMissLatency::total 39482.705975                       # average ReadReq miss latency ((Tick/Count))
board.cache_hierarchy.l1icaches.ReadReq.mshrHits::processor.cores.core.inst        54361                       # number of ReadReq MSHR hits (Count)
board.cache_hierarchy.l1icaches.ReadReq.mshrHits::total        54361                       # number of ReadReq MSHR hits (Count)
board.cache_hierarchy.l1icaches.ReadReq.mshrMisses::processor.cores.core.inst       327505                       # number of ReadReq MSHR misses (Count)
board.cache_hierarchy.l1icaches.ReadReq.mshrMisses::total       327505                       # number of ReadReq MSHR misses (Count)
board.cache_hierarchy.l1icaches.ReadReq.mshrMissLatency::processor.cores.core.inst  12587278000                       # number of ReadReq MSHR miss ticks (Tick)
board.cache_hierarchy.l1icaches.ReadReq.mshrMissLatency::total  12587278000                       # number of ReadReq MSHR miss ticks (Tick)
board.cache_hierarchy.l1icaches.ReadReq.mshrMissRate::processor.cores.core.inst     0.000594                       # mshr miss rate for ReadReq accesses (Ratio)
board.cache_hierarchy.l1icaches.ReadReq.mshrMissRate::total     0.000594                       # mshr miss rate for ReadReq accesses (Ratio)
board.cache_hierarchy.l1icaches.ReadReq.avgMshrMissLatency::processor.cores.core.inst 38433.849865                       # average ReadReq mshr miss latency ((Tick/Count))
board.cache_hierarchy.l1icaches.ReadReq.avgMshrMissLatency::total 38433.849865                       # average ReadReq mshr miss latency ((Tick/Count))
board.cache_hierarchy.l1icaches.power_state.pwrStateResidencyTicks::UNDEFINED 7408562716000                       # Cumulative time (in ticks) in various power states (Tick)
board.cache_hierarchy.l1icaches.prefetcher.demandMshrMisses       327505                       # demands not covered by prefetchs (Count)
board.cache_hierarchy.l1icaches.prefetcher.pfIssued            0                       # number of hwpf issued (Count)
board.cache_hierarchy.l1icaches.prefetcher.pfUseful            0                       # number of useful prefetch (Count)
board.cache_hierarchy.l1icaches.prefetcher.pfUsefulButMiss            0                       # number of hit on prefetch but cache block is not in an usable state (Count)
board.cache_hierarchy.l1icaches.prefetcher.accuracy          nan                       # accuracy of the prefetcher (Count)
board.cache_hierarchy.l1icaches.prefetcher.coverage            0                       # coverage brought by this prefetcher (Count)
board.cache_hierarchy.l1icaches.prefetcher.pfHitInCache            0                       # number of prefetches hitting in cache (Count)
board.cache_hierarchy.l1icaches.prefetcher.pfHitInMSHR            0                       # number of prefetches hitting in a MSHR (Count)
board.cache_hierarchy.l1icaches.prefetcher.pfHitInWB            0                       # number of prefetches hit in the Write Buffer (Count)
board.cache_hierarchy.l1icaches.prefetcher.pfLate            0                       # number of late prefetches (hitting in cache, MSHR or WB) (Count)
board.cache_hierarchy.l1icaches.prefetcher.pfIdentified            0                       # number of prefetch candidates identified (Count)
board.cache_hierarchy.l1icaches.prefetcher.pfBufferHit            0                       # number of redundant prefetches already in prefetch queue (Count)
board.cache_hierarchy.l1icaches.prefetcher.pfInCache            0                       # number of redundant prefetches already in cache/mshr dropped (Count)
board.cache_hierarchy.l1icaches.prefetcher.pfRemovedDemand            0                       # number of prefetches dropped due to a demand for the same address (Count)
board.cache_hierarchy.l1icaches.prefetcher.pfRemovedFull            0                       # number of prefetches dropped due to prefetch queue size (Count)
board.cache_hierarchy.l1icaches.prefetcher.pfSpanPage            0                       # number of prefetches that crossed the page (Count)
board.cache_hierarchy.l1icaches.prefetcher.pfUsefulSpanPage            0                       # number of prefetches that is useful and crossed the page (Count)
board.cache_hierarchy.l1icaches.prefetcher.power_state.pwrStateResidencyTicks::UNDEFINED 7408562716000                       # Cumulative time (in ticks) in various power states (Tick)
board.cache_hierarchy.l1icaches.tags.tagsInUse   511.986934                       # Average ticks per tags in use ((Tick/Count))
board.cache_hierarchy.l1icaches.tags.totalRefs    550958782                       # Total number of references to valid blocks. (Count)
board.cache_hierarchy.l1icaches.tags.sampledRefs       327505                       # Sample count of references to valid blocks. (Count)
board.cache_hierarchy.l1icaches.tags.avgRefs  1682.291208                       # Average number of references to valid blocks. ((Count/Count))
board.cache_hierarchy.l1icaches.tags.warmupTick 5408562795000                       # The tick when the warmup percentage was hit. (Tick)
board.cache_hierarchy.l1icaches.tags.occupancies::processor.cores.core.inst   511.986934                       # Average occupied blocks per tick, per requestor ((Count/Tick))
board.cache_hierarchy.l1icaches.tags.avgOccs::processor.cores.core.inst     0.999974                       # Average percentage of cache occupancy ((Ratio/Tick))
board.cache_hierarchy.l1icaches.tags.avgOccs::total     0.999974                       # Average percentage of cache occupancy ((Ratio/Tick))
[...]
board.processor.cores.core.fetch.nisnDist::min_value            0                       # Number of instructions fetched each cycle (Total) (Count)
board.processor.cores.core.fetch.nisnDist::max_value            8                       # Number of instructions fetched each cycle (Total) (Count)
board.processor.cores.core.fetch.nisnDist::total   1834945466                       # Number of instructions fetched each cycle (Total) (Count)
board.processor.cores.core.fetchStats0.numInsts   5580518313                       # Number of instructions fetched (thread level) (Count)
board.processor.cores.core.fetchStats0.numOps            0                       # Number of ops (including micro ops) fetched (thread level) (Count)
board.processor.cores.core.fetchStats0.fetchRate     3.034281                       # Number of inst fetches per cycle ((Count/Cycle))
board.processor.cores.core.fetchStats0.numBranches    385985551                       # Number of branches fetched (Count)
board.processor.cores.core.fetchStats0.branchRate     0.209871                       # Number of branch fetches per cycle (Ratio)
board.processor.cores.core.fetchStats0.icacheStallCycles     11989826                       # ICache total stall cycles (Cycle)
board.processor.cores.core.fetchStats0.numFetchSuspends            0                       # Number of times Execute suspended instruction fetching (Count)
board.processor.cores.core.iew.idleCycles            0                       # Number of cycles IEW is idle (Cycle)
board.processor.cores.core.iew.squashCycles      4445576                       # Number of cycles IEW is squashing (Cycle)
board.processor.cores.core.iew.blockCycles     22976914                       # Number of cycles IEW is blocking (Cycle)
board.processor.cores.core.iew.unblockCycles      5514162                       # Number of cycles IEW is unblocking (Cycle)
board.processor.cores.core.iew.dispatchedInsts   5420419274                       # Number of instructions dispatched to IQ (Count)
board.processor.cores.core.iew.dispSquashedInsts      8515064                       # Number of squashed instructions skipped by dispatch (Count)
board.processor.cores.core.iew.dispLoadInsts   1572944408                       # Number of dispatched load instructions (Count)
board.processor.cores.core.iew.dispStoreInsts    800216103                       # Number of dispatched store instructions (Count)
board.processor.cores.core.iew.dispNonSpecInsts      1451221                       # Number of dispatched non-speculative instructions (Count)
board.processor.cores.core.iew.iqFullEvents       201125                       # Number of times the IQ has become full, causing a stall (Count)
board.processor.cores.core.iew.lsqFullEvents      5177480                       # Number of times the LSQ has become full, causing a stall (Count)
board.processor.cores.core.iew.memOrderViolationEvents       297069                       # Number of memory order violations (Count)
board.processor.cores.core.iew.predictedTakenIncorrect      2844654                       # Number of branches that were predicted taken incorrectly (Count)
board.processor.cores.core.iew.predictedNotTakenIncorrect      1521180                       # Number of branches that were predicted not taken incorrectly (Count)
board.processor.cores.core.iew.branchMispredicts      4365834                       # Number of branch mispredicts detected at execute (Count)
board.processor.cores.core.iew.instsToCommit   5344077704                       # Cumulative count of insts sent to commit (Count)
board.processor.cores.core.iew.writebackCount   5337934769                       # Cumulative count of insts written-back (Count)
board.processor.cores.core.iew.producerInst   4105976321                       # Number of instructions producing a value (Count)
board.processor.cores.core.iew.consumerInst   5137949173                       # Number of instructions consuming a value (Count)
board.processor.cores.core.iew.wbRate        2.902382                       # Insts written-back per cycle ((Count/Cycle))
board.processor.cores.core.iew.wbFanout      0.799147                       # Average fanout of values written-back ((Count/Count))
board.processor.cores.core.lsq0.forwLoads    765538478                       # Number of loads that had data forwarded from stores (Count)
board.processor.cores.core.lsq0.squashedLoads     54500650                       # Number of loads squashed (Count)
board.processor.cores.core.lsq0.ignoredResponses      1561241                       # Number of memory responses ignored because the instruction is squashed (Count)
board.processor.cores.core.lsq0.memOrderViolation       297069                       # Number of memory ordering violations (Count)
board.processor.cores.core.lsq0.squashedStores     26971600                       # Number of stores squashed (Count)
board.processor.cores.core.lsq0.rescheduledLoads        33535                       # Number of loads that were rescheduled (Count)
board.processor.cores.core.lsq0.blockedByCache         4868                       # Number of times an access to memory failed due to the cache being blocked (Count)
board.processor.cores.core.lsq0.loadToUse::samples   1518443736                       # Distribution of cycle latency between the first time a load is issued and its completion (Unspecified)
board.processor.cores.core.lsq0.loadToUse::mean     2.223791                       # Distribution of cycle latency between the first time a load is issued and its completion (Unspecified)
board.processor.cores.core.lsq0.loadToUse::stdev     1.800315                       # Distribution of cycle latency between the first time a load is issued and its completion (Unspecified)
board.processor.cores.core.lsq0.loadToUse::0-9   1517314063     99.93%     99.93% # Distribution of cycle latency between the first time a load is issued and its completion (Unspecified)
board.processor.cores.core.lsq0.loadToUse::10-19       547842      0.04%     99.96% # Distribution of cycle latency between the first time a load is issued and its completion (Unspecified)
board.processor.cores.core.lsq0.loadToUse::20-29        25591      0.00%     99.96% # Distribution of cycle latency between the first time a load is issued and its completion (Unspecified)
board.processor.cores.core.lsq0.loadToUse::30-39        10012      0.00%     99.96% # Distribution of cycle latency between the first time a load is issued and its completion (Unspecified)
board.processor.cores.core.lsq0.loadToUse::40-49        12590      0.00%     99.96% # Distribution of cycle latency between the first time a load is issued and its completion (Unspecified)
board.processor.cores.core.lsq0.loadToUse::50-59        48329      0.00%     99.97% # Distribution of cycle latency between the first time a load is issued and its completion (Unspecified)
board.processor.cores.core.lsq0.loadToUse::60-69       169643      0.01%     99.98% # Distribution of cycle latency between the first time a load is issued and its completion (Unspecified)
board.processor.cores.core.lsq0.loadToUse::70-79       122912      0.01%     99.99% # Distribution of cycle latency between the first time a load is issued and its completion (Unspecified)
board.processor.cores.core.lsq0.loadToUse::80-89        75028      0.00%     99.99% # Distribution of cycle latency between the first time a load is issued and its completion (Unspecified)
board.processor.cores.core.lsq0.loadToUse::90-99        48844      0.00%    100.00% # Distribution of cycle latency between the first time a load is issued and its completion (Unspecified)
board.processor.cores.core.lsq0.loadToUse::100-109        11945      0.00%    100.00% # Distribution of cycle latency between the first time a load is issued and its completion (Unspecified)
board.processor.cores.core.lsq0.loadToUse::110-119         5921      0.00%    100.00% # Distribution of cycle latency between the first time a load is issued and its completion (Unspecified)
board.processor.cores.core.lsq0.loadToUse::120-129         5584      0.00%    100.00% # Distribution of cycle latency between the first time a load is issued and its completion (Unspecified)
board.processor.cores.core.lsq0.loadToUse::130-139         6875      0.00%    100.00% # Distribution of cycle latency between the first time a load is issued and its completion (Unspecified)
board.processor.cores.core.lsq0.loadToUse::140-149         5137      0.00%    100.00% # Distribution of cycle latency between the first time a load is issued and its completion (Unspecified)
board.processor.cores.core.lsq0.loadToUse::150-159         5689      0.00%    100.00% # Distribution of cycle latency between the first time a load is issued and its completion (Unspecified)
board.processor.cores.core.lsq0.loadToUse::160-169         5294      0.00%    100.00% # Distribution of cycle latency between the first time a load is issued and its completion (Unspecified)
board.processor.cores.core.lsq0.loadToUse::170-179         3770      0.00%    100.00% # Distribution of cycle latency between the first time a load is issued and its completion (Unspecified)
board.processor.cores.core.lsq0.loadToUse::180-189         3135      0.00%    100.00% # Distribution of cycle latency between the first time a load is issued and its completion (Unspecified)
board.processor.cores.core.lsq0.loadToUse::190-199         2649      0.00%    100.00% # Distribution of cycle latency between the first time a load is issued and its completion (Unspecified)
board.processor.cores.core.lsq0.loadToUse::200-209         1183      0.00%    100.00% # Distribution of cycle latency between the first time a load is issued and its completion (Unspecified)
board.processor.cores.core.lsq0.loadToUse::210-219          870      0.00%    100.00% # Distribution of cycle latency between the first time a load is issued and its completion (Unspecified)
board.processor.cores.core.lsq0.loadToUse::220-229          857      0.00%    100.00% # Distribution of cycle latency between the first time a load is issued and its completion (Unspecified)
board.processor.cores.core.lsq0.loadToUse::230-239          738      0.00%    100.00% # Distribution of cycle latency between the first time a load is issued and its completion (Unspecified)
board.processor.cores.core.lsq0.loadToUse::240-249          632      0.00%    100.00% # Distribution of cycle latency between the first time a load is issued and its completion (Unspecified)
board.processor.cores.core.lsq0.loadToUse::250-259          799      0.00%    100.00% # Distribution of cycle latency between the first time a load is issued and its completion (Unspecified)
board.processor.cores.core.lsq0.loadToUse::260-269          685      0.00%    100.00% # Distribution of cycle latency between the first time a load is issued and its completion (Unspecified)
board.processor.cores.core.lsq0.loadToUse::270-279          663      0.00%    100.00% # Distribution of cycle latency between the first time a load is issued and its completion (Unspecified)
board.processor.cores.core.lsq0.loadToUse::280-289          693      0.00%    100.00% # Distribution of cycle latency between the first time a load is issued and its completion (Unspecified)
board.processor.cores.core.lsq0.loadToUse::290-299          792      0.00%    100.00% # Distribution of cycle latency between the first time a load is issued and its completion (Unspecified)
board.processor.cores.core.lsq0.loadToUse::overflows         4971      0.00%    100.00% # Distribution of cycle latency between the first time a load is issued and its completion (Unspecified)
board.processor.cores.core.lsq0.loadToUse::min_value            2                       # Distribution of cycle latency between the first time a load is issued and its completion (Unspecified)
board.processor.cores.core.lsq0.loadToUse::max_value          800                       # Distribution of cycle latency between the first time a load is issued and its completion (Unspecified)
board.processor.cores.core.lsq0.loadToUse::total   1518443736                       # Distribution of cycle latency between the first time a load is issued and its completion (Unspecified)
board.processor.cores.core.mmu.dtb.readHits   1556472955                       # read hits (Count)
board.processor.cores.core.mmu.dtb.readMisses        93749                       # read misses (Count)
board.processor.cores.core.mmu.dtb.readAccesses   1556566704                       # read accesses (Count)
board.processor.cores.core.mmu.dtb.writeHits    782399003                       # write hits (Count)
board.processor.cores.core.mmu.dtb.writeMisses       122756                       # write misses (Count)
board.processor.cores.core.mmu.dtb.writeAccesses    782521759                       # write accesses (Count)
board.processor.cores.core.mmu.dtb.hits    2338871958                       # Total TLB (read and write) hits (Count)
board.processor.cores.core.mmu.dtb.misses       216505                       # Total TLB (read and write) misses (Count)
board.processor.cores.core.mmu.dtb.accesses   2339088463                       # Total TLB (read and write) accesses (Count)
board.processor.cores.core.mmu.dtb.walker.power_state.pwrStateResidencyTicks::UNDEFINED 7408562716000                       # Cumulative time (in ticks) in various power states (Tick)
board.processor.cores.core.mmu.itb.readHits    551047990                       # read hits (Count)
board.processor.cores.core.mmu.itb.readMisses        13394                       # read misses (Count)
board.processor.cores.core.mmu.itb.readAccesses    551061384                       # read accesses (Count)
board.processor.cores.core.mmu.itb.writeHits            0                       # write hits (Count)
board.processor.cores.core.mmu.itb.writeMisses            0                       # write misses (Count)
board.processor.cores.core.mmu.itb.writeAccesses            0                       # write accesses (Count)
board.processor.cores.core.mmu.itb.hits     551047990                       # Total TLB (read and write) hits (Count)
board.processor.cores.core.mmu.itb.misses        13394                       # Total TLB (read and write) misses (Count)
board.processor.cores.core.mmu.itb.accesses    551061384                       # Total TLB (read and write) accesses (Count)
board.processor.cores.core.mmu.itb.walker.power_state.pwrStateResidencyTicks::UNDEFINED 7408562716000                       # Cumulative time (in ticks) in various power states (Tick)
board.processor.cores.core.power_state.numTransitions           82                       # Number of power state transitions (Count)
board.processor.cores.core.power_state.ticksClkGated::samples           41                       # Distribution of time spent in the clock gated state (Tick)
board.processor.cores.core.power_state.ticksClkGated::mean 3923014243.902439                       # Distribution of time spent in the clock gated state (Tick)
board.processor.cores.core.power_state.ticksClkGated::stdev 472088168.859312                       # Distribution of time spent in the clock gated state (Tick)
board.processor.cores.core.power_state.ticksClkGated::1000-5e+10           41    100.00%    100.00% # Distribution of time spent in the clock gated state (Tick)
board.processor.cores.core.power_state.ticksClkGated::min_value    973979000                       # Distribution of time spent in the clock gated state (Tick)
board.processor.cores.core.power_state.ticksClkGated::max_value   3997878000                       # Distribution of time spent in the clock gated state (Tick)
board.processor.cores.core.power_state.ticksClkGated::total           41                       # Distribution of time spent in the clock gated state (Tick)
board.processor.cores.core.power_state.pwrStateResidencyTicks::ON 1841413249000                       # Cumulative time (in ticks) in various power states (Tick)
board.processor.cores.core.power_state.pwrStateResidencyTicks::CLK_GATED 160843584000                       # Cumulative time (in ticks) in various power states (Tick)
board.processor.cores.core.rename.squashCycles      4445576                       # Number of cycles rename is squashing (Cycle)
board.processor.cores.core.rename.idleCycles    241553694                       # Number of cycles rename is idle (Cycle)
board.processor.cores.core.rename.blockCycles    158722441                       # Number of cycles rename is blocking (Cycle)
board.processor.cores.core.rename.serializeStallCycles     16415240                       # count of cycles rename stalled for serializing inst (Cycle)
board.processor.cores.core.rename.runCycles    630092299                       # Number of cycles rename is running (Cycle)
board.processor.cores.core.rename.unblockCycles    783716215                       # Number of cycles rename is unblocking (Cycle)
board.processor.cores.core.rename.renamedInsts   5452357268                       # Number of instructions processed by rename (Count)
board.processor.cores.core.rename.ROBFullEvents        40052                       # Number of times rename has blocked due to ROB full (Count)
board.processor.cores.core.rename.IQFullEvents    429853941                       # Number of times rename has blocked due to IQ full (Count)
board.processor.cores.core.rename.LQFullEvents    297717387                       # Number of times rename has blocked due to LQ full (Count)
board.processor.cores.core.rename.SQFullEvents     36711365                       # Number of times rename has blocked due to SQ full (Count)
board.processor.cores.core.rename.renamedOperands   4396162128                       # Number of destination operands rename has renamed (Count)
board.processor.cores.core.rename.lookups   6679136251                       # Number of register rename lookups that rename has made (Count)
board.processor.cores.core.rename.intLookups   6575426983                       # Number of integer rename lookups (Count)
board.processor.cores.core.rename.fpLookups         2299                       # Number of floating rename lookups (Count)
board.processor.cores.core.rename.committedMaps   4263157681                       # Number of HB maps that are committed (Count)
board.processor.cores.core.rename.undoneMaps    133004380                       # Number of HB maps that are undone due to squashing (Count)
board.processor.cores.core.rename.serializing       944491                       # count of serializing insts renamed (Count)
board.processor.cores.core.rename.tempSerializing       944465                       # count of temporary serializing insts renamed (Count)
board.processor.cores.core.rename.skidInsts   1488449054                       # count of insts added to the skid buffer (Count)
board.processor.cores.core.rob.reads       6849197001                       # The number of ROB reads (Count)
board.processor.cores.core.rob.writes     10863921080                       # The number of ROB writes (Count)
board.processor.cores.core.thread_0.numInsts   5258534412                       # Number of Instructions committed (Count)
board.processor.cores.core.thread_0.numOps   5258859599                       # Number of Ops committed (Count)
board.processor.cores.core.thread_0.numMemRefs            0                       # Number of Memory References (Count)
board.rng.power_state.pwrStateResidencyTicks::UNDEFINED 7408562716000                       # Cumulative time (in ticks) in various power states (Tick)
board.workload.inst.arm                             0                       # number of arm instructions executed (Count)
board.workload.inst.quiesce                        41                       # number of quiesce instructions executed (Count)

---------- End Simulation Statistics   ----------
